gem5 Simulator System.  http://gem5.org
gem5 is copyrighted software; use the --copyright option for details.

gem5 compiled May 24 2018 13:23:59
gem5 started Sep 13 2018 17:56:19
gem5 executing on iris-13, pid 100680
command line: build/X86/gem5_NLNT.opt --debug-flags=AcclRecord configs/example/tca.py --cpu-type=DerivO3CPU --caches --l2cache --l1i_size=4MB --mem-size=8GB --cpu-clock=2GHz --sys-clock=2GHz --robNum=108 -c tests/tca/test_david

Global frequency set at 1000000000000 ticks per second
**** REAL SIMULATION ****
rand_acc is 0.000000
436003500: system.cpu.fetch: before, Accl inst[0] encoutner: Instruction PC 0x400bff, asm:   MULSS_XMM_M : mmulf   %xmm0_low, %xmm0_low, %ufp1, opclass is now: 7.
436003500: system.cpu.fetch: after, Accl inst[1] checked: Instruction PC 0x400bff, asm:   MULSS_XMM_M : mmulf   %xmm0_low, %xmm0_low, %ufp1, opclass is now: 38.
443164500: system.cpu.fetch: before, Accl inst[0] encoutner: Instruction PC 0x404a50, asm:   MULSS_XMM_M : mmulf   %xmm0_low, %xmm0_low, %ufp1, opclass is now: 7.
443164500: system.cpu.fetch: after, Accl inst[1] checked: Instruction PC 0x404a50, asm:   MULSS_XMM_M : mmulf   %xmm0_low, %xmm0_low, %ufp1, opclass is now: 38.
443168000: system.cpu.fetch: before, Accl inst[0] encoutner: Instruction PC 0x404a50, asm:   MULSS_XMM_M : mmulf   %xmm0_low, %xmm0_low, %ufp1, opclass is now: 7.
443168000: system.cpu.fetch: after, Accl inst[1] checked: Instruction PC 0x404a50, asm:   MULSS_XMM_M : mmulf   %xmm0_low, %xmm0_low, %ufp1, opclass is now: 38.
443174500: system.cpu.fetch: before, Accl inst[0] encoutner: Instruction PC 0x404a50, asm:   MULSS_XMM_M : mmulf   %xmm0_low, %xmm0_low, %ufp1, opclass is now: 7.
443174500: system.cpu.fetch: after, Accl inst[1] checked: Instruction PC 0x404a50, asm:   MULSS_XMM_M : mmulf   %xmm0_low, %xmm0_low, %ufp1, opclass is now: 38.
446357000: system.cpu.fetch: before, Accl inst[0] encoutner: Instruction PC 0x4064d6, asm:   MULSS_XMM_M : mmulf   %xmm0_low, %xmm0_low, %ufp1, opclass is now: 7.
446357000: system.cpu.fetch: after, Accl inst[1] checked: Instruction PC 0x4064d6, asm:   MULSS_XMM_M : mmulf   %xmm0_low, %xmm0_low, %ufp1, opclass is now: 38.
446361000: system.cpu.fetch: before, Accl inst[0] encoutner: Instruction PC 0x4064d6, asm:   MULSS_XMM_M : mmulf   %xmm0_low, %xmm0_low, %ufp1, opclass is now: 7.
446361000: system.cpu.fetch: after, Accl inst[1] checked: Instruction PC 0x4064d6, asm:   MULSS_XMM_M : mmulf   %xmm0_low, %xmm0_low, %ufp1, opclass is now: 38.
446367500: system.cpu.fetch: before, Accl inst[0] encoutner: Instruction PC 0x4064d6, asm:   MULSS_XMM_M : mmulf   %xmm0_low, %xmm0_low, %ufp1, opclass is now: 7.
446367500: system.cpu.fetch: after, Accl inst[1] checked: Instruction PC 0x4064d6, asm:   MULSS_XMM_M : mmulf   %xmm0_low, %xmm0_low, %ufp1, opclass is now: 38.
451806000: system.cpu.fetch: before, Accl inst[0] encoutner: Instruction PC 0x409601, asm:   MULSS_XMM_M : mmulf   %xmm0_low, %xmm0_low, %ufp1, opclass is now: 7.
451806000: system.cpu.fetch: after, Accl inst[1] checked: Instruction PC 0x409601, asm:   MULSS_XMM_M : mmulf   %xmm0_low, %xmm0_low, %ufp1, opclass is now: 38.
456313000: system.cpu.fetch: before, Accl inst[0] encoutner: Instruction PC 0x40bc37, asm:   MULSS_XMM_M : mmulf   %xmm0_low, %xmm0_low, %ufp1, opclass is now: 7.
457487000: system.cpu.fetch: before, Accl inst[0] encoutner: Instruction PC 0x40c6ab, asm:   MULSS_XMM_M : mmulf   %xmm0_low, %xmm0_low, %ufp1, opclass is now: 7.
457495500: system.cpu.fetch: before, Accl inst[0] encoutner: Instruction PC 0x40c6ab, asm:   MULSS_XMM_M : mmulf   %xmm0_low, %xmm0_low, %ufp1, opclass is now: 7.
463843500: system.cpu.fetch: before, Accl inst[0] encoutner: Instruction PC 0x40fdae, asm:   MULSS_XMM_M : mmulf   %xmm0_low, %xmm0_low, %ufp1, opclass is now: 7.
463852500: system.cpu.fetch: before, Accl inst[0] encoutner: Instruction PC 0x40fdae, asm:   MULSS_XMM_M : mmulf   %xmm0_low, %xmm0_low, %ufp1, opclass is now: 7.
466606500: system.cpu.fetch: before, Accl inst[0] encoutner: Instruction PC 0x4111a1, asm:   MULSS_XMM_M : mmulf   %xmm0_low, %xmm0_low, %ufp1, opclass is now: 7.
466615000: system.cpu.fetch: before, Accl inst[0] encoutner: Instruction PC 0x4111a1, asm:   MULSS_XMM_M : mmulf   %xmm0_low, %xmm0_low, %ufp1, opclass is now: 7.
469401500: system.cpu.fetch: before, Accl inst[0] encoutner: Instruction PC 0x400bff, asm:   MULSS_XMM_M : mmulf   %xmm0_low, %xmm0_low, %ufp1, opclass is now: 7.
469401500: system.cpu.fetch: after, Accl inst[1] checked: Instruction PC 0x400bff, asm:   MULSS_XMM_M : mmulf   %xmm0_low, %xmm0_low, %ufp1, opclass is now: 38.
469408500: system.cpu.fetch: before, Accl inst[0] encoutner: Instruction PC 0x400bff, asm:   MULSS_XMM_M : mmulf   %xmm0_low, %xmm0_low, %ufp1, opclass is now: 7.
469408500: system.cpu.fetch: after, Accl inst[1] checked: Instruction PC 0x400bff, asm:   MULSS_XMM_M : mmulf   %xmm0_low, %xmm0_low, %ufp1, opclass is now: 38.
469415500: system.cpu.fetch: before, Accl inst[0] encoutner: Instruction PC 0x400bff, asm:   MULSS_XMM_M : mmulf   %xmm0_low, %xmm0_low, %ufp1, opclass is now: 7.
469415500: system.cpu.fetch: after, Accl inst[1] checked: Instruction PC 0x400bff, asm:   MULSS_XMM_M : mmulf   %xmm0_low, %xmm0_low, %ufp1, opclass is now: 38.
472089000: system.cpu.fetch: before, Accl inst[0] encoutner: Instruction PC 0x404a50, asm:   MULSS_XMM_M : mmulf   %xmm0_low, %xmm0_low, %ufp1, opclass is now: 7.
472089000: system.cpu.fetch: after, Accl inst[1] checked: Instruction PC 0x404a50, asm:   MULSS_XMM_M : mmulf   %xmm0_low, %xmm0_low, %ufp1, opclass is now: 38.
472095500: system.cpu.fetch: before, Accl inst[0] encoutner: Instruction PC 0x404a50, asm:   MULSS_XMM_M : mmulf   %xmm0_low, %xmm0_low, %ufp1, opclass is now: 7.
472095500: system.cpu.fetch: after, Accl inst[1] checked: Instruction PC 0x404a50, asm:   MULSS_XMM_M : mmulf   %xmm0_low, %xmm0_low, %ufp1, opclass is now: 38.
472103500: system.cpu.fetch: before, Accl inst[0] encoutner: Instruction PC 0x404a50, asm:   MULSS_XMM_M : mmulf   %xmm0_low, %xmm0_low, %ufp1, opclass is now: 7.
472103500: system.cpu.fetch: after, Accl inst[1] checked: Instruction PC 0x404a50, asm:   MULSS_XMM_M : mmulf   %xmm0_low, %xmm0_low, %ufp1, opclass is now: 38.
472111500: system.cpu.fetch: before, Accl inst[0] encoutner: Instruction PC 0x404a50, asm:   MULSS_XMM_M : mmulf   %xmm0_low, %xmm0_low, %ufp1, opclass is now: 7.
472111500: system.cpu.fetch: after, Accl inst[1] checked: Instruction PC 0x404a50, asm:   MULSS_XMM_M : mmulf   %xmm0_low, %xmm0_low, %ufp1, opclass is now: 38.
473297500: system.cpu.fetch: before, Accl inst[0] encoutner: Instruction PC 0x4064d6, asm:   MULSS_XMM_M : mmulf   %xmm0_low, %xmm0_low, %ufp1, opclass is now: 7.
473297500: system.cpu.fetch: after, Accl inst[1] checked: Instruction PC 0x4064d6, asm:   MULSS_XMM_M : mmulf   %xmm0_low, %xmm0_low, %ufp1, opclass is now: 38.
473311000: system.cpu.fetch: before, Accl inst[0] encoutner: Instruction PC 0x4064d6, asm:   MULSS_XMM_M : mmulf   %xmm0_low, %xmm0_low, %ufp1, opclass is now: 7.
473311000: system.cpu.fetch: after, Accl inst[1] checked: Instruction PC 0x4064d6, asm:   MULSS_XMM_M : mmulf   %xmm0_low, %xmm0_low, %ufp1, opclass is now: 38.
473322500: system.cpu.fetch: before, Accl inst[0] encoutner: Instruction PC 0x4064d6, asm:   MULSS_XMM_M : mmulf   %xmm0_low, %xmm0_low, %ufp1, opclass is now: 7.
473322500: system.cpu.fetch: after, Accl inst[1] checked: Instruction PC 0x4064d6, asm:   MULSS_XMM_M : mmulf   %xmm0_low, %xmm0_low, %ufp1, opclass is now: 38.
473334000: system.cpu.fetch: before, Accl inst[0] encoutner: Instruction PC 0x4064d6, asm:   MULSS_XMM_M : mmulf   %xmm0_low, %xmm0_low, %ufp1, opclass is now: 7.
473334000: system.cpu.fetch: after, Accl inst[1] checked: Instruction PC 0x4064d6, asm:   MULSS_XMM_M : mmulf   %xmm0_low, %xmm0_low, %ufp1, opclass is now: 38.
473343000: system.cpu.fetch: before, Accl inst[0] encoutner: Instruction PC 0x4064d6, asm:   MULSS_XMM_M : mmulf   %xmm0_low, %xmm0_low, %ufp1, opclass is now: 7.
473343000: system.cpu.fetch: after, Accl inst[1] checked: Instruction PC 0x4064d6, asm:   MULSS_XMM_M : mmulf   %xmm0_low, %xmm0_low, %ufp1, opclass is now: 38.
473353000: system.cpu.fetch: before, Accl inst[0] encoutner: Instruction PC 0x4064d6, asm:   MULSS_XMM_M : mmulf   %xmm0_low, %xmm0_low, %ufp1, opclass is now: 7.
473353000: system.cpu.fetch: after, Accl inst[1] checked: Instruction PC 0x4064d6, asm:   MULSS_XMM_M : mmulf   %xmm0_low, %xmm0_low, %ufp1, opclass is now: 38.
475479500: system.cpu.fetch: before, Accl inst[0] encoutner: Instruction PC 0x409601, asm:   MULSS_XMM_M : mmulf   %xmm0_low, %xmm0_low, %ufp1, opclass is now: 7.
475479500: system.cpu.fetch: after, Accl inst[1] checked: Instruction PC 0x409601, asm:   MULSS_XMM_M : mmulf   %xmm0_low, %xmm0_low, %ufp1, opclass is now: 38.
475492500: system.cpu.fetch: before, Accl inst[0] encoutner: Instruction PC 0x409601, asm:   MULSS_XMM_M : mmulf   %xmm0_low, %xmm0_low, %ufp1, opclass is now: 7.
475492500: system.cpu.fetch: after, Accl inst[1] checked: Instruction PC 0x409601, asm:   MULSS_XMM_M : mmulf   %xmm0_low, %xmm0_low, %ufp1, opclass is now: 38.
475504500: system.cpu.fetch: before, Accl inst[0] encoutner: Instruction PC 0x409601, asm:   MULSS_XMM_M : mmulf   %xmm0_low, %xmm0_low, %ufp1, opclass is now: 7.
475504500: system.cpu.fetch: after, Accl inst[1] checked: Instruction PC 0x409601, asm:   MULSS_XMM_M : mmulf   %xmm0_low, %xmm0_low, %ufp1, opclass is now: 38.
475519500: system.cpu.fetch: before, Accl inst[0] encoutner: Instruction PC 0x409601, asm:   MULSS_XMM_M : mmulf   %xmm0_low, %xmm0_low, %ufp1, opclass is now: 7.
475519500: system.cpu.fetch: after, Accl inst[1] checked: Instruction PC 0x409601, asm:   MULSS_XMM_M : mmulf   %xmm0_low, %xmm0_low, %ufp1, opclass is now: 38.
475532000: system.cpu.fetch: before, Accl inst[0] encoutner: Instruction PC 0x409601, asm:   MULSS_XMM_M : mmulf   %xmm0_low, %xmm0_low, %ufp1, opclass is now: 7.
475532000: system.cpu.fetch: after, Accl inst[1] checked: Instruction PC 0x409601, asm:   MULSS_XMM_M : mmulf   %xmm0_low, %xmm0_low, %ufp1, opclass is now: 38.
475538000: system.cpu.fetch: before, Accl inst[0] encoutner: Instruction PC 0x409601, asm:   MULSS_XMM_M : mmulf   %xmm0_low, %xmm0_low, %ufp1, opclass is now: 7.
475538000: system.cpu.fetch: after, Accl inst[1] checked: Instruction PC 0x409601, asm:   MULSS_XMM_M : mmulf   %xmm0_low, %xmm0_low, %ufp1, opclass is now: 38.
475543500: system.cpu.fetch: before, Accl inst[0] encoutner: Instruction PC 0x409601, asm:   MULSS_XMM_M : mmulf   %xmm0_low, %xmm0_low, %ufp1, opclass is now: 7.
475543500: system.cpu.fetch: after, Accl inst[1] checked: Instruction PC 0x409601, asm:   MULSS_XMM_M : mmulf   %xmm0_low, %xmm0_low, %ufp1, opclass is now: 38.
477175000: system.cpu.fetch: before, Accl inst[0] encoutner: Instruction PC 0x40bc37, asm:   MULSS_XMM_M : mmulf   %xmm0_low, %xmm0_low, %ufp1, opclass is now: 7.
477183500: system.cpu.fetch: before, Accl inst[0] encoutner: Instruction PC 0x40bc37, asm:   MULSS_XMM_M : mmulf   %xmm0_low, %xmm0_low, %ufp1, opclass is now: 7.
477195000: system.cpu.fetch: before, Accl inst[0] encoutner: Instruction PC 0x40bc37, asm:   MULSS_XMM_M : mmulf   %xmm0_low, %xmm0_low, %ufp1, opclass is now: 7.
477206000: system.cpu.fetch: before, Accl inst[0] encoutner: Instruction PC 0x40bc37, asm:   MULSS_XMM_M : mmulf   %xmm0_low, %xmm0_low, %ufp1, opclass is now: 7.
477215000: system.cpu.fetch: before, Accl inst[0] encoutner: Instruction PC 0x40bc37, asm:   MULSS_XMM_M : mmulf   %xmm0_low, %xmm0_low, %ufp1, opclass is now: 7.
477227500: system.cpu.fetch: before, Accl inst[0] encoutner: Instruction PC 0x40bc37, asm:   MULSS_XMM_M : mmulf   %xmm0_low, %xmm0_low, %ufp1, opclass is now: 7.
477612000: system.cpu.fetch: before, Accl inst[0] encoutner: Instruction PC 0x40c6ab, asm:   MULSS_XMM_M : mmulf   %xmm0_low, %xmm0_low, %ufp1, opclass is now: 7.
477623500: system.cpu.fetch: before, Accl inst[0] encoutner: Instruction PC 0x40c6ab, asm:   MULSS_XMM_M : mmulf   %xmm0_low, %xmm0_low, %ufp1, opclass is now: 7.
477636000: system.cpu.fetch: before, Accl inst[0] encoutner: Instruction PC 0x40c6ab, asm:   MULSS_XMM_M : mmulf   %xmm0_low, %xmm0_low, %ufp1, opclass is now: 7.
477648000: system.cpu.fetch: before, Accl inst[0] encoutner: Instruction PC 0x40c6ab, asm:   MULSS_XMM_M : mmulf   %xmm0_low, %xmm0_low, %ufp1, opclass is now: 7.
477659500: system.cpu.fetch: before, Accl inst[0] encoutner: Instruction PC 0x40c6ab, asm:   MULSS_XMM_M : mmulf   %xmm0_low, %xmm0_low, %ufp1, opclass is now: 7.
477669000: system.cpu.fetch: before, Accl inst[0] encoutner: Instruction PC 0x40c6ab, asm:   MULSS_XMM_M : mmulf   %xmm0_low, %xmm0_low, %ufp1, opclass is now: 7.
477681000: system.cpu.fetch: before, Accl inst[0] encoutner: Instruction PC 0x40c6ab, asm:   MULSS_XMM_M : mmulf   %xmm0_low, %xmm0_low, %ufp1, opclass is now: 7.
477695000: system.cpu.fetch: before, Accl inst[0] encoutner: Instruction PC 0x40c6ab, asm:   MULSS_XMM_M : mmulf   %xmm0_low, %xmm0_low, %ufp1, opclass is now: 7.
480136500: system.cpu.fetch: before, Accl inst[0] encoutner: Instruction PC 0x40fdae, asm:   MULSS_XMM_M : mmulf   %xmm0_low, %xmm0_low, %ufp1, opclass is now: 7.
480149000: system.cpu.fetch: before, Accl inst[0] encoutner: Instruction PC 0x40fdae, asm:   MULSS_XMM_M : mmulf   %xmm0_low, %xmm0_low, %ufp1, opclass is now: 7.
480160500: system.cpu.fetch: before, Accl inst[0] encoutner: Instruction PC 0x40fdae, asm:   MULSS_XMM_M : mmulf   %xmm0_low, %xmm0_low, %ufp1, opclass is now: 7.
480172500: system.cpu.fetch: before, Accl inst[0] encoutner: Instruction PC 0x40fdae, asm:   MULSS_XMM_M : mmulf   %xmm0_low, %xmm0_low, %ufp1, opclass is now: 7.
480183000: system.cpu.fetch: before, Accl inst[0] encoutner: Instruction PC 0x40fdae, asm:   MULSS_XMM_M : mmulf   %xmm0_low, %xmm0_low, %ufp1, opclass is now: 7.
481097000: system.cpu.fetch: before, Accl inst[0] encoutner: Instruction PC 0x4111a1, asm:   MULSS_XMM_M : mmulf   %xmm0_low, %xmm0_low, %ufp1, opclass is now: 7.
481105500: system.cpu.fetch: before, Accl inst[0] encoutner: Instruction PC 0x4111a1, asm:   MULSS_XMM_M : mmulf   %xmm0_low, %xmm0_low, %ufp1, opclass is now: 7.
481120000: system.cpu.fetch: before, Accl inst[0] encoutner: Instruction PC 0x4111a1, asm:   MULSS_XMM_M : mmulf   %xmm0_low, %xmm0_low, %ufp1, opclass is now: 7.
481128500: system.cpu.fetch: before, Accl inst[0] encoutner: Instruction PC 0x4111a1, asm:   MULSS_XMM_M : mmulf   %xmm0_low, %xmm0_low, %ufp1, opclass is now: 7.
481139500: system.cpu.fetch: before, Accl inst[0] encoutner: Instruction PC 0x4111a1, asm:   MULSS_XMM_M : mmulf   %xmm0_low, %xmm0_low, %ufp1, opclass is now: 7.
481146500: system.cpu.fetch: before, Accl inst[0] encoutner: Instruction PC 0x4111a1, asm:   MULSS_XMM_M : mmulf   %xmm0_low, %xmm0_low, %ufp1, opclass is now: 7.
482250000: system.cpu.fetch: before, Accl inst[0] encoutner: Instruction PC 0x400bff, asm:   MULSS_XMM_M : mmulf   %xmm0_low, %xmm0_low, %ufp1, opclass is now: 7.
482250000: system.cpu.fetch: after, Accl inst[1] checked: Instruction PC 0x400bff, asm:   MULSS_XMM_M : mmulf   %xmm0_low, %xmm0_low, %ufp1, opclass is now: 38.
482262000: system.cpu.fetch: before, Accl inst[0] encoutner: Instruction PC 0x400bff, asm:   MULSS_XMM_M : mmulf   %xmm0_low, %xmm0_low, %ufp1, opclass is now: 7.
482262000: system.cpu.fetch: after, Accl inst[1] checked: Instruction PC 0x400bff, asm:   MULSS_XMM_M : mmulf   %xmm0_low, %xmm0_low, %ufp1, opclass is now: 38.
482272000: system.cpu.fetch: before, Accl inst[0] encoutner: Instruction PC 0x400bff, asm:   MULSS_XMM_M : mmulf   %xmm0_low, %xmm0_low, %ufp1, opclass is now: 7.
482272000: system.cpu.fetch: after, Accl inst[1] checked: Instruction PC 0x400bff, asm:   MULSS_XMM_M : mmulf   %xmm0_low, %xmm0_low, %ufp1, opclass is now: 38.
482281000: system.cpu.fetch: before, Accl inst[0] encoutner: Instruction PC 0x400bff, asm:   MULSS_XMM_M : mmulf   %xmm0_low, %xmm0_low, %ufp1, opclass is now: 7.
482281000: system.cpu.fetch: after, Accl inst[1] checked: Instruction PC 0x400bff, asm:   MULSS_XMM_M : mmulf   %xmm0_low, %xmm0_low, %ufp1, opclass is now: 38.
482291000: system.cpu.fetch: before, Accl inst[0] encoutner: Instruction PC 0x400bff, asm:   MULSS_XMM_M : mmulf   %xmm0_low, %xmm0_low, %ufp1, opclass is now: 7.
482291000: system.cpu.fetch: after, Accl inst[1] checked: Instruction PC 0x400bff, asm:   MULSS_XMM_M : mmulf   %xmm0_low, %xmm0_low, %ufp1, opclass is now: 38.
485003500: system.cpu.fetch: before, Accl inst[0] encoutner: Instruction PC 0x404a50, asm:   MULSS_XMM_M : mmulf   %xmm0_low, %xmm0_low, %ufp1, opclass is now: 7.
485003500: system.cpu.fetch: after, Accl inst[1] checked: Instruction PC 0x404a50, asm:   MULSS_XMM_M : mmulf   %xmm0_low, %xmm0_low, %ufp1, opclass is now: 38.
485021500: system.cpu.fetch: before, Accl inst[0] encoutner: Instruction PC 0x404a50, asm:   MULSS_XMM_M : mmulf   %xmm0_low, %xmm0_low, %ufp1, opclass is now: 7.
485021500: system.cpu.fetch: after, Accl inst[1] checked: Instruction PC 0x404a50, asm:   MULSS_XMM_M : mmulf   %xmm0_low, %xmm0_low, %ufp1, opclass is now: 38.
485030500: system.cpu.fetch: before, Accl inst[0] encoutner: Instruction PC 0x404a50, asm:   MULSS_XMM_M : mmulf   %xmm0_low, %xmm0_low, %ufp1, opclass is now: 7.
485030500: system.cpu.fetch: after, Accl inst[1] checked: Instruction PC 0x404a50, asm:   MULSS_XMM_M : mmulf   %xmm0_low, %xmm0_low, %ufp1, opclass is now: 38.
485038500: system.cpu.fetch: before, Accl inst[0] encoutner: Instruction PC 0x404a50, asm:   MULSS_XMM_M : mmulf   %xmm0_low, %xmm0_low, %ufp1, opclass is now: 7.
485038500: system.cpu.fetch: after, Accl inst[1] checked: Instruction PC 0x404a50, asm:   MULSS_XMM_M : mmulf   %xmm0_low, %xmm0_low, %ufp1, opclass is now: 38.
485045500: system.cpu.fetch: before, Accl inst[0] encoutner: Instruction PC 0x404a50, asm:   MULSS_XMM_M : mmulf   %xmm0_low, %xmm0_low, %ufp1, opclass is now: 7.
485045500: system.cpu.fetch: after, Accl inst[1] checked: Instruction PC 0x404a50, asm:   MULSS_XMM_M : mmulf   %xmm0_low, %xmm0_low, %ufp1, opclass is now: 38.
486228500: system.cpu.fetch: before, Accl inst[0] encoutner: Instruction PC 0x4064d6, asm:   MULSS_XMM_M : mmulf   %xmm0_low, %xmm0_low, %ufp1, opclass is now: 7.
486228500: system.cpu.fetch: after, Accl inst[1] checked: Instruction PC 0x4064d6, asm:   MULSS_XMM_M : mmulf   %xmm0_low, %xmm0_low, %ufp1, opclass is now: 38.
486248500: system.cpu.fetch: before, Accl inst[0] encoutner: Instruction PC 0x4064d6, asm:   MULSS_XMM_M : mmulf   %xmm0_low, %xmm0_low, %ufp1, opclass is now: 7.
486248500: system.cpu.fetch: after, Accl inst[1] checked: Instruction PC 0x4064d6, asm:   MULSS_XMM_M : mmulf   %xmm0_low, %xmm0_low, %ufp1, opclass is now: 38.
486264500: system.cpu.fetch: before, Accl inst[0] encoutner: Instruction PC 0x4064d6, asm:   MULSS_XMM_M : mmulf   %xmm0_low, %xmm0_low, %ufp1, opclass is now: 7.
486264500: system.cpu.fetch: after, Accl inst[1] checked: Instruction PC 0x4064d6, asm:   MULSS_XMM_M : mmulf   %xmm0_low, %xmm0_low, %ufp1, opclass is now: 38.
488235500: system.cpu.fetch: before, Accl inst[0] encoutner: Instruction PC 0x409601, asm:   MULSS_XMM_M : mmulf   %xmm0_low, %xmm0_low, %ufp1, opclass is now: 7.
488235500: system.cpu.fetch: after, Accl inst[1] checked: Instruction PC 0x409601, asm:   MULSS_XMM_M : mmulf   %xmm0_low, %xmm0_low, %ufp1, opclass is now: 38.
488252000: system.cpu.fetch: before, Accl inst[0] encoutner: Instruction PC 0x409601, asm:   MULSS_XMM_M : mmulf   %xmm0_low, %xmm0_low, %ufp1, opclass is now: 7.
488252000: system.cpu.fetch: after, Accl inst[1] checked: Instruction PC 0x409601, asm:   MULSS_XMM_M : mmulf   %xmm0_low, %xmm0_low, %ufp1, opclass is now: 38.
488259000: system.cpu.fetch: before, Accl inst[0] encoutner: Instruction PC 0x409601, asm:   MULSS_XMM_M : mmulf   %xmm0_low, %xmm0_low, %ufp1, opclass is now: 7.
488259000: system.cpu.fetch: after, Accl inst[1] checked: Instruction PC 0x409601, asm:   MULSS_XMM_M : mmulf   %xmm0_low, %xmm0_low, %ufp1, opclass is now: 38.
488268500: system.cpu.fetch: before, Accl inst[0] encoutner: Instruction PC 0x409601, asm:   MULSS_XMM_M : mmulf   %xmm0_low, %xmm0_low, %ufp1, opclass is now: 7.
488268500: system.cpu.fetch: after, Accl inst[1] checked: Instruction PC 0x409601, asm:   MULSS_XMM_M : mmulf   %xmm0_low, %xmm0_low, %ufp1, opclass is now: 38.
488280500: system.cpu.fetch: before, Accl inst[0] encoutner: Instruction PC 0x409601, asm:   MULSS_XMM_M : mmulf   %xmm0_low, %xmm0_low, %ufp1, opclass is now: 7.
488280500: system.cpu.fetch: after, Accl inst[1] checked: Instruction PC 0x409601, asm:   MULSS_XMM_M : mmulf   %xmm0_low, %xmm0_low, %ufp1, opclass is now: 38.
489662500: system.cpu.fetch: before, Accl inst[0] encoutner: Instruction PC 0x40bc37, asm:   MULSS_XMM_M : mmulf   %xmm0_low, %xmm0_low, %ufp1, opclass is now: 7.
489679500: system.cpu.fetch: before, Accl inst[0] encoutner: Instruction PC 0x40bc37, asm:   MULSS_XMM_M : mmulf   %xmm0_low, %xmm0_low, %ufp1, opclass is now: 7.
489687000: system.cpu.fetch: before, Accl inst[0] encoutner: Instruction PC 0x40bc37, asm:   MULSS_XMM_M : mmulf   %xmm0_low, %xmm0_low, %ufp1, opclass is now: 7.
489703500: system.cpu.fetch: before, Accl inst[0] encoutner: Instruction PC 0x40bc37, asm:   MULSS_XMM_M : mmulf   %xmm0_low, %xmm0_low, %ufp1, opclass is now: 7.
490104000: system.cpu.fetch: before, Accl inst[0] encoutner: Instruction PC 0x40c6ab, asm:   MULSS_XMM_M : mmulf   %xmm0_low, %xmm0_low, %ufp1, opclass is now: 7.
490122000: system.cpu.fetch: before, Accl inst[0] encoutner: Instruction PC 0x40c6ab, asm:   MULSS_XMM_M : mmulf   %xmm0_low, %xmm0_low, %ufp1, opclass is now: 7.
490133000: system.cpu.fetch: before, Accl inst[0] encoutner: Instruction PC 0x40c6ab, asm:   MULSS_XMM_M : mmulf   %xmm0_low, %xmm0_low, %ufp1, opclass is now: 7.
490139500: system.cpu.fetch: before, Accl inst[0] encoutner: Instruction PC 0x40c6ab, asm:   MULSS_XMM_M : mmulf   %xmm0_low, %xmm0_low, %ufp1, opclass is now: 7.
492274000: system.cpu.fetch: before, Accl inst[0] encoutner: Instruction PC 0x40fdae, asm:   MULSS_XMM_M : mmulf   %xmm0_low, %xmm0_low, %ufp1, opclass is now: 7.
492299000: system.cpu.fetch: before, Accl inst[0] encoutner: Instruction PC 0x40fdae, asm:   MULSS_XMM_M : mmulf   %xmm0_low, %xmm0_low, %ufp1, opclass is now: 7.
492311500: system.cpu.fetch: before, Accl inst[0] encoutner: Instruction PC 0x40fdae, asm:   MULSS_XMM_M : mmulf   %xmm0_low, %xmm0_low, %ufp1, opclass is now: 7.
492323000: system.cpu.fetch: before, Accl inst[0] encoutner: Instruction PC 0x40fdae, asm:   MULSS_XMM_M : mmulf   %xmm0_low, %xmm0_low, %ufp1, opclass is now: 7.
492335000: system.cpu.fetch: before, Accl inst[0] encoutner: Instruction PC 0x40fdae, asm:   MULSS_XMM_M : mmulf   %xmm0_low, %xmm0_low, %ufp1, opclass is now: 7.
492344000: system.cpu.fetch: before, Accl inst[0] encoutner: Instruction PC 0x40fdae, asm:   MULSS_XMM_M : mmulf   %xmm0_low, %xmm0_low, %ufp1, opclass is now: 7.
492356500: system.cpu.fetch: before, Accl inst[0] encoutner: Instruction PC 0x40fdae, asm:   MULSS_XMM_M : mmulf   %xmm0_low, %xmm0_low, %ufp1, opclass is now: 7.
493217000: system.cpu.fetch: before, Accl inst[0] encoutner: Instruction PC 0x4111a1, asm:   MULSS_XMM_M : mmulf   %xmm0_low, %xmm0_low, %ufp1, opclass is now: 7.
493250000: system.cpu.fetch: before, Accl inst[0] encoutner: Instruction PC 0x4111a1, asm:   MULSS_XMM_M : mmulf   %xmm0_low, %xmm0_low, %ufp1, opclass is now: 7.
494214500: system.cpu.fetch: before, Accl inst[0] encoutner: Instruction PC 0x400bff, asm:   MULSS_XMM_M : mmulf   %xmm0_low, %xmm0_low, %ufp1, opclass is now: 7.
494214500: system.cpu.fetch: after, Accl inst[1] checked: Instruction PC 0x400bff, asm:   MULSS_XMM_M : mmulf   %xmm0_low, %xmm0_low, %ufp1, opclass is now: 38.
494221000: system.cpu.fetch: before, Accl inst[0] encoutner: Instruction PC 0x400bff, asm:   MULSS_XMM_M : mmulf   %xmm0_low, %xmm0_low, %ufp1, opclass is now: 7.
494221000: system.cpu.fetch: after, Accl inst[1] checked: Instruction PC 0x400bff, asm:   MULSS_XMM_M : mmulf   %xmm0_low, %xmm0_low, %ufp1, opclass is now: 38.
496606500: system.cpu.fetch: before, Accl inst[0] encoutner: Instruction PC 0x404a50, asm:   MULSS_XMM_M : mmulf   %xmm0_low, %xmm0_low, %ufp1, opclass is now: 7.
496606500: system.cpu.fetch: after, Accl inst[1] checked: Instruction PC 0x404a50, asm:   MULSS_XMM_M : mmulf   %xmm0_low, %xmm0_low, %ufp1, opclass is now: 38.
496624000: system.cpu.fetch: before, Accl inst[0] encoutner: Instruction PC 0x404a50, asm:   MULSS_XMM_M : mmulf   %xmm0_low, %xmm0_low, %ufp1, opclass is now: 7.
496624000: system.cpu.fetch: after, Accl inst[1] checked: Instruction PC 0x404a50, asm:   MULSS_XMM_M : mmulf   %xmm0_low, %xmm0_low, %ufp1, opclass is now: 38.
496645500: system.cpu.fetch: before, Accl inst[0] encoutner: Instruction PC 0x404a50, asm:   MULSS_XMM_M : mmulf   %xmm0_low, %xmm0_low, %ufp1, opclass is now: 7.
496645500: system.cpu.fetch: after, Accl inst[1] checked: Instruction PC 0x404a50, asm:   MULSS_XMM_M : mmulf   %xmm0_low, %xmm0_low, %ufp1, opclass is now: 38.
496655500: system.cpu.fetch: before, Accl inst[0] encoutner: Instruction PC 0x404a50, asm:   MULSS_XMM_M : mmulf   %xmm0_low, %xmm0_low, %ufp1, opclass is now: 7.
496655500: system.cpu.fetch: after, Accl inst[1] checked: Instruction PC 0x404a50, asm:   MULSS_XMM_M : mmulf   %xmm0_low, %xmm0_low, %ufp1, opclass is now: 38.
497653000: system.cpu.fetch: before, Accl inst[0] encoutner: Instruction PC 0x4064d6, asm:   MULSS_XMM_M : mmulf   %xmm0_low, %xmm0_low, %ufp1, opclass is now: 7.
497653000: system.cpu.fetch: after, Accl inst[1] checked: Instruction PC 0x4064d6, asm:   MULSS_XMM_M : mmulf   %xmm0_low, %xmm0_low, %ufp1, opclass is now: 38.
497699500: system.cpu.fetch: before, Accl inst[0] encoutner: Instruction PC 0x4064d6, asm:   MULSS_XMM_M : mmulf   %xmm0_low, %xmm0_low, %ufp1, opclass is now: 7.
497699500: system.cpu.fetch: after, Accl inst[1] checked: Instruction PC 0x4064d6, asm:   MULSS_XMM_M : mmulf   %xmm0_low, %xmm0_low, %ufp1, opclass is now: 38.
499640500: system.cpu.fetch: before, Accl inst[0] encoutner: Instruction PC 0x409601, asm:   MULSS_XMM_M : mmulf   %xmm0_low, %xmm0_low, %ufp1, opclass is now: 7.
499640500: system.cpu.fetch: after, Accl inst[1] checked: Instruction PC 0x409601, asm:   MULSS_XMM_M : mmulf   %xmm0_low, %xmm0_low, %ufp1, opclass is now: 38.
499651500: system.cpu.fetch: before, Accl inst[0] encoutner: Instruction PC 0x409601, asm:   MULSS_XMM_M : mmulf   %xmm0_low, %xmm0_low, %ufp1, opclass is now: 7.
499651500: system.cpu.fetch: after, Accl inst[1] checked: Instruction PC 0x409601, asm:   MULSS_XMM_M : mmulf   %xmm0_low, %xmm0_low, %ufp1, opclass is now: 38.
499658000: system.cpu.fetch: before, Accl inst[0] encoutner: Instruction PC 0x409601, asm:   MULSS_XMM_M : mmulf   %xmm0_low, %xmm0_low, %ufp1, opclass is now: 7.
499658000: system.cpu.fetch: after, Accl inst[1] checked: Instruction PC 0x409601, asm:   MULSS_XMM_M : mmulf   %xmm0_low, %xmm0_low, %ufp1, opclass is now: 38.
499664500: system.cpu.fetch: before, Accl inst[0] encoutner: Instruction PC 0x409601, asm:   MULSS_XMM_M : mmulf   %xmm0_low, %xmm0_low, %ufp1, opclass is now: 7.
499664500: system.cpu.fetch: after, Accl inst[1] checked: Instruction PC 0x409601, asm:   MULSS_XMM_M : mmulf   %xmm0_low, %xmm0_low, %ufp1, opclass is now: 38.
499675000: system.cpu.fetch: before, Accl inst[0] encoutner: Instruction PC 0x409601, asm:   MULSS_XMM_M : mmulf   %xmm0_low, %xmm0_low, %ufp1, opclass is now: 7.
499675000: system.cpu.fetch: after, Accl inst[1] checked: Instruction PC 0x409601, asm:   MULSS_XMM_M : mmulf   %xmm0_low, %xmm0_low, %ufp1, opclass is now: 38.
501042000: system.cpu.fetch: before, Accl inst[0] encoutner: Instruction PC 0x40bc37, asm:   MULSS_XMM_M : mmulf   %xmm0_low, %xmm0_low, %ufp1, opclass is now: 7.
501060000: system.cpu.fetch: before, Accl inst[0] encoutner: Instruction PC 0x40bc37, asm:   MULSS_XMM_M : mmulf   %xmm0_low, %xmm0_low, %ufp1, opclass is now: 7.
501082000: system.cpu.fetch: before, Accl inst[0] encoutner: Instruction PC 0x40bc37, asm:   MULSS_XMM_M : mmulf   %xmm0_low, %xmm0_low, %ufp1, opclass is now: 7.
501093500: system.cpu.fetch: before, Accl inst[0] encoutner: Instruction PC 0x40bc37, asm:   MULSS_XMM_M : mmulf   %xmm0_low, %xmm0_low, %ufp1, opclass is now: 7.
501106500: system.cpu.fetch: before, Accl inst[0] encoutner: Instruction PC 0x40bc37, asm:   MULSS_XMM_M : mmulf   %xmm0_low, %xmm0_low, %ufp1, opclass is now: 7.
501438000: system.cpu.fetch: before, Accl inst[0] encoutner: Instruction PC 0x40c6ab, asm:   MULSS_XMM_M : mmulf   %xmm0_low, %xmm0_low, %ufp1, opclass is now: 7.
501463500: system.cpu.fetch: before, Accl inst[0] encoutner: Instruction PC 0x40c6ab, asm:   MULSS_XMM_M : mmulf   %xmm0_low, %xmm0_low, %ufp1, opclass is now: 7.
503446000: system.cpu.fetch: before, Accl inst[0] encoutner: Instruction PC 0x40fdae, asm:   MULSS_XMM_M : mmulf   %xmm0_low, %xmm0_low, %ufp1, opclass is now: 7.
503462500: system.cpu.fetch: before, Accl inst[0] encoutner: Instruction PC 0x40fdae, asm:   MULSS_XMM_M : mmulf   %xmm0_low, %xmm0_low, %ufp1, opclass is now: 7.
503468000: system.cpu.fetch: before, Accl inst[0] encoutner: Instruction PC 0x40fdae, asm:   MULSS_XMM_M : mmulf   %xmm0_low, %xmm0_low, %ufp1, opclass is now: 7.
503473500: system.cpu.fetch: before, Accl inst[0] encoutner: Instruction PC 0x40fdae, asm:   MULSS_XMM_M : mmulf   %xmm0_low, %xmm0_low, %ufp1, opclass is now: 7.
503479000: system.cpu.fetch: before, Accl inst[0] encoutner: Instruction PC 0x40fdae, asm:   MULSS_XMM_M : mmulf   %xmm0_low, %xmm0_low, %ufp1, opclass is now: 7.
503486000: system.cpu.fetch: before, Accl inst[0] encoutner: Instruction PC 0x40fdae, asm:   MULSS_XMM_M : mmulf   %xmm0_low, %xmm0_low, %ufp1, opclass is now: 7.
503496000: system.cpu.fetch: before, Accl inst[0] encoutner: Instruction PC 0x40fdae, asm:   MULSS_XMM_M : mmulf   %xmm0_low, %xmm0_low, %ufp1, opclass is now: 7.
503508500: system.cpu.fetch: before, Accl inst[0] encoutner: Instruction PC 0x40fdae, asm:   MULSS_XMM_M : mmulf   %xmm0_low, %xmm0_low, %ufp1, opclass is now: 7.
504247500: system.cpu.fetch: before, Accl inst[0] encoutner: Instruction PC 0x4111a1, asm:   MULSS_XMM_M : mmulf   %xmm0_low, %xmm0_low, %ufp1, opclass is now: 7.
505245000: system.cpu.fetch: before, Accl inst[0] encoutner: Instruction PC 0x400bff, asm:   MULSS_XMM_M : mmulf   %xmm0_low, %xmm0_low, %ufp1, opclass is now: 7.
505245000: system.cpu.fetch: after, Accl inst[1] checked: Instruction PC 0x400bff, asm:   MULSS_XMM_M : mmulf   %xmm0_low, %xmm0_low, %ufp1, opclass is now: 38.
505264500: system.cpu.fetch: before, Accl inst[0] encoutner: Instruction PC 0x400bff, asm:   MULSS_XMM_M : mmulf   %xmm0_low, %xmm0_low, %ufp1, opclass is now: 7.
505264500: system.cpu.fetch: after, Accl inst[1] checked: Instruction PC 0x400bff, asm:   MULSS_XMM_M : mmulf   %xmm0_low, %xmm0_low, %ufp1, opclass is now: 38.
505276500: system.cpu.fetch: before, Accl inst[0] encoutner: Instruction PC 0x400bff, asm:   MULSS_XMM_M : mmulf   %xmm0_low, %xmm0_low, %ufp1, opclass is now: 7.
505276500: system.cpu.fetch: after, Accl inst[1] checked: Instruction PC 0x400bff, asm:   MULSS_XMM_M : mmulf   %xmm0_low, %xmm0_low, %ufp1, opclass is now: 38.
505288000: system.cpu.fetch: before, Accl inst[0] encoutner: Instruction PC 0x400bff, asm:   MULSS_XMM_M : mmulf   %xmm0_low, %xmm0_low, %ufp1, opclass is now: 7.
505288000: system.cpu.fetch: after, Accl inst[1] checked: Instruction PC 0x400bff, asm:   MULSS_XMM_M : mmulf   %xmm0_low, %xmm0_low, %ufp1, opclass is now: 38.
505297000: system.cpu.fetch: before, Accl inst[0] encoutner: Instruction PC 0x400bff, asm:   MULSS_XMM_M : mmulf   %xmm0_low, %xmm0_low, %ufp1, opclass is now: 7.
505297000: system.cpu.fetch: after, Accl inst[1] checked: Instruction PC 0x400bff, asm:   MULSS_XMM_M : mmulf   %xmm0_low, %xmm0_low, %ufp1, opclass is now: 38.
507562000: system.cpu.fetch: before, Accl inst[0] encoutner: Instruction PC 0x404a50, asm:   MULSS_XMM_M : mmulf   %xmm0_low, %xmm0_low, %ufp1, opclass is now: 7.
507562000: system.cpu.fetch: after, Accl inst[1] checked: Instruction PC 0x404a50, asm:   MULSS_XMM_M : mmulf   %xmm0_low, %xmm0_low, %ufp1, opclass is now: 38.
507581000: system.cpu.fetch: before, Accl inst[0] encoutner: Instruction PC 0x404a50, asm:   MULSS_XMM_M : mmulf   %xmm0_low, %xmm0_low, %ufp1, opclass is now: 7.
507581000: system.cpu.fetch: after, Accl inst[1] checked: Instruction PC 0x404a50, asm:   MULSS_XMM_M : mmulf   %xmm0_low, %xmm0_low, %ufp1, opclass is now: 38.
507591500: system.cpu.fetch: before, Accl inst[0] encoutner: Instruction PC 0x404a50, asm:   MULSS_XMM_M : mmulf   %xmm0_low, %xmm0_low, %ufp1, opclass is now: 7.
507591500: system.cpu.fetch: after, Accl inst[1] checked: Instruction PC 0x404a50, asm:   MULSS_XMM_M : mmulf   %xmm0_low, %xmm0_low, %ufp1, opclass is now: 38.
507600500: system.cpu.fetch: before, Accl inst[0] encoutner: Instruction PC 0x404a50, asm:   MULSS_XMM_M : mmulf   %xmm0_low, %xmm0_low, %ufp1, opclass is now: 7.
507600500: system.cpu.fetch: after, Accl inst[1] checked: Instruction PC 0x404a50, asm:   MULSS_XMM_M : mmulf   %xmm0_low, %xmm0_low, %ufp1, opclass is now: 38.
508541500: system.cpu.fetch: before, Accl inst[0] encoutner: Instruction PC 0x4064d6, asm:   MULSS_XMM_M : mmulf   %xmm0_low, %xmm0_low, %ufp1, opclass is now: 7.
508541500: system.cpu.fetch: after, Accl inst[1] checked: Instruction PC 0x4064d6, asm:   MULSS_XMM_M : mmulf   %xmm0_low, %xmm0_low, %ufp1, opclass is now: 38.
508554500: system.cpu.fetch: before, Accl inst[0] encoutner: Instruction PC 0x4064d6, asm:   MULSS_XMM_M : mmulf   %xmm0_low, %xmm0_low, %ufp1, opclass is now: 7.
508554500: system.cpu.fetch: after, Accl inst[1] checked: Instruction PC 0x4064d6, asm:   MULSS_XMM_M : mmulf   %xmm0_low, %xmm0_low, %ufp1, opclass is now: 38.
508570000: system.cpu.fetch: before, Accl inst[0] encoutner: Instruction PC 0x4064d6, asm:   MULSS_XMM_M : mmulf   %xmm0_low, %xmm0_low, %ufp1, opclass is now: 7.
508570000: system.cpu.fetch: after, Accl inst[1] checked: Instruction PC 0x4064d6, asm:   MULSS_XMM_M : mmulf   %xmm0_low, %xmm0_low, %ufp1, opclass is now: 38.
508588000: system.cpu.fetch: before, Accl inst[0] encoutner: Instruction PC 0x4064d6, asm:   MULSS_XMM_M : mmulf   %xmm0_low, %xmm0_low, %ufp1, opclass is now: 7.
508588000: system.cpu.fetch: after, Accl inst[1] checked: Instruction PC 0x4064d6, asm:   MULSS_XMM_M : mmulf   %xmm0_low, %xmm0_low, %ufp1, opclass is now: 38.
510429000: system.cpu.fetch: before, Accl inst[0] encoutner: Instruction PC 0x409601, asm:   MULSS_XMM_M : mmulf   %xmm0_low, %xmm0_low, %ufp1, opclass is now: 7.
510429000: system.cpu.fetch: after, Accl inst[1] checked: Instruction PC 0x409601, asm:   MULSS_XMM_M : mmulf   %xmm0_low, %xmm0_low, %ufp1, opclass is now: 38.
510442000: system.cpu.fetch: before, Accl inst[0] encoutner: Instruction PC 0x409601, asm:   MULSS_XMM_M : mmulf   %xmm0_low, %xmm0_low, %ufp1, opclass is now: 7.
510442000: system.cpu.fetch: after, Accl inst[1] checked: Instruction PC 0x409601, asm:   MULSS_XMM_M : mmulf   %xmm0_low, %xmm0_low, %ufp1, opclass is now: 38.
510455000: system.cpu.fetch: before, Accl inst[0] encoutner: Instruction PC 0x409601, asm:   MULSS_XMM_M : mmulf   %xmm0_low, %xmm0_low, %ufp1, opclass is now: 7.
510455000: system.cpu.fetch: after, Accl inst[1] checked: Instruction PC 0x409601, asm:   MULSS_XMM_M : mmulf   %xmm0_low, %xmm0_low, %ufp1, opclass is now: 38.
510460500: system.cpu.fetch: before, Accl inst[0] encoutner: Instruction PC 0x409601, asm:   MULSS_XMM_M : mmulf   %xmm0_low, %xmm0_low, %ufp1, opclass is now: 7.
510460500: system.cpu.fetch: after, Accl inst[1] checked: Instruction PC 0x409601, asm:   MULSS_XMM_M : mmulf   %xmm0_low, %xmm0_low, %ufp1, opclass is now: 38.
510468000: system.cpu.fetch: before, Accl inst[0] encoutner: Instruction PC 0x409601, asm:   MULSS_XMM_M : mmulf   %xmm0_low, %xmm0_low, %ufp1, opclass is now: 7.
510468000: system.cpu.fetch: after, Accl inst[1] checked: Instruction PC 0x409601, asm:   MULSS_XMM_M : mmulf   %xmm0_low, %xmm0_low, %ufp1, opclass is now: 38.
510474000: system.cpu.fetch: before, Accl inst[0] encoutner: Instruction PC 0x409601, asm:   MULSS_XMM_M : mmulf   %xmm0_low, %xmm0_low, %ufp1, opclass is now: 7.
510474000: system.cpu.fetch: after, Accl inst[1] checked: Instruction PC 0x409601, asm:   MULSS_XMM_M : mmulf   %xmm0_low, %xmm0_low, %ufp1, opclass is now: 38.
511908500: system.cpu.fetch: before, Accl inst[0] encoutner: Instruction PC 0x40bc37, asm:   MULSS_XMM_M : mmulf   %xmm0_low, %xmm0_low, %ufp1, opclass is now: 7.
512278000: system.cpu.fetch: before, Accl inst[0] encoutner: Instruction PC 0x40c6ab, asm:   MULSS_XMM_M : mmulf   %xmm0_low, %xmm0_low, %ufp1, opclass is now: 7.
512292000: system.cpu.fetch: before, Accl inst[0] encoutner: Instruction PC 0x40c6ab, asm:   MULSS_XMM_M : mmulf   %xmm0_low, %xmm0_low, %ufp1, opclass is now: 7.
512304500: system.cpu.fetch: before, Accl inst[0] encoutner: Instruction PC 0x40c6ab, asm:   MULSS_XMM_M : mmulf   %xmm0_low, %xmm0_low, %ufp1, opclass is now: 7.
512316500: system.cpu.fetch: before, Accl inst[0] encoutner: Instruction PC 0x40c6ab, asm:   MULSS_XMM_M : mmulf   %xmm0_low, %xmm0_low, %ufp1, opclass is now: 7.
512328000: system.cpu.fetch: before, Accl inst[0] encoutner: Instruction PC 0x40c6ab, asm:   MULSS_XMM_M : mmulf   %xmm0_low, %xmm0_low, %ufp1, opclass is now: 7.
514423000: system.cpu.fetch: before, Accl inst[0] encoutner: Instruction PC 0x40fdae, asm:   MULSS_XMM_M : mmulf   %xmm0_low, %xmm0_low, %ufp1, opclass is now: 7.
515209000: system.cpu.fetch: before, Accl inst[0] encoutner: Instruction PC 0x4111a1, asm:   MULSS_XMM_M : mmulf   %xmm0_low, %xmm0_low, %ufp1, opclass is now: 7.
516230500: system.cpu.fetch: before, Accl inst[0] encoutner: Instruction PC 0x400bff, asm:   MULSS_XMM_M : mmulf   %xmm0_low, %xmm0_low, %ufp1, opclass is now: 7.
516230500: system.cpu.fetch: after, Accl inst[1] checked: Instruction PC 0x400bff, asm:   MULSS_XMM_M : mmulf   %xmm0_low, %xmm0_low, %ufp1, opclass is now: 38.
518606000: system.cpu.fetch: before, Accl inst[0] encoutner: Instruction PC 0x404a50, asm:   MULSS_XMM_M : mmulf   %xmm0_low, %xmm0_low, %ufp1, opclass is now: 7.
518606000: system.cpu.fetch: after, Accl inst[1] checked: Instruction PC 0x404a50, asm:   MULSS_XMM_M : mmulf   %xmm0_low, %xmm0_low, %ufp1, opclass is now: 38.
518623500: system.cpu.fetch: before, Accl inst[0] encoutner: Instruction PC 0x404a50, asm:   MULSS_XMM_M : mmulf   %xmm0_low, %xmm0_low, %ufp1, opclass is now: 7.
518623500: system.cpu.fetch: after, Accl inst[1] checked: Instruction PC 0x404a50, asm:   MULSS_XMM_M : mmulf   %xmm0_low, %xmm0_low, %ufp1, opclass is now: 38.
518641500: system.cpu.fetch: before, Accl inst[0] encoutner: Instruction PC 0x404a50, asm:   MULSS_XMM_M : mmulf   %xmm0_low, %xmm0_low, %ufp1, opclass is now: 7.
518641500: system.cpu.fetch: after, Accl inst[1] checked: Instruction PC 0x404a50, asm:   MULSS_XMM_M : mmulf   %xmm0_low, %xmm0_low, %ufp1, opclass is now: 38.
519553000: system.cpu.fetch: before, Accl inst[0] encoutner: Instruction PC 0x4064d6, asm:   MULSS_XMM_M : mmulf   %xmm0_low, %xmm0_low, %ufp1, opclass is now: 7.
519553000: system.cpu.fetch: after, Accl inst[1] checked: Instruction PC 0x4064d6, asm:   MULSS_XMM_M : mmulf   %xmm0_low, %xmm0_low, %ufp1, opclass is now: 38.
519567500: system.cpu.fetch: before, Accl inst[0] encoutner: Instruction PC 0x4064d6, asm:   MULSS_XMM_M : mmulf   %xmm0_low, %xmm0_low, %ufp1, opclass is now: 7.
519567500: system.cpu.fetch: after, Accl inst[1] checked: Instruction PC 0x4064d6, asm:   MULSS_XMM_M : mmulf   %xmm0_low, %xmm0_low, %ufp1, opclass is now: 38.
519577000: system.cpu.fetch: before, Accl inst[0] encoutner: Instruction PC 0x4064d6, asm:   MULSS_XMM_M : mmulf   %xmm0_low, %xmm0_low, %ufp1, opclass is now: 7.
519577000: system.cpu.fetch: after, Accl inst[1] checked: Instruction PC 0x4064d6, asm:   MULSS_XMM_M : mmulf   %xmm0_low, %xmm0_low, %ufp1, opclass is now: 38.
519595000: system.cpu.fetch: before, Accl inst[0] encoutner: Instruction PC 0x4064d6, asm:   MULSS_XMM_M : mmulf   %xmm0_low, %xmm0_low, %ufp1, opclass is now: 7.
519595000: system.cpu.fetch: after, Accl inst[1] checked: Instruction PC 0x4064d6, asm:   MULSS_XMM_M : mmulf   %xmm0_low, %xmm0_low, %ufp1, opclass is now: 38.
521379500: system.cpu.fetch: before, Accl inst[0] encoutner: Instruction PC 0x409601, asm:   MULSS_XMM_M : mmulf   %xmm0_low, %xmm0_low, %ufp1, opclass is now: 7.
521379500: system.cpu.fetch: after, Accl inst[1] checked: Instruction PC 0x409601, asm:   MULSS_XMM_M : mmulf   %xmm0_low, %xmm0_low, %ufp1, opclass is now: 38.
521390500: system.cpu.fetch: before, Accl inst[0] encoutner: Instruction PC 0x409601, asm:   MULSS_XMM_M : mmulf   %xmm0_low, %xmm0_low, %ufp1, opclass is now: 7.
521390500: system.cpu.fetch: after, Accl inst[1] checked: Instruction PC 0x409601, asm:   MULSS_XMM_M : mmulf   %xmm0_low, %xmm0_low, %ufp1, opclass is now: 38.
521398000: system.cpu.fetch: before, Accl inst[0] encoutner: Instruction PC 0x409601, asm:   MULSS_XMM_M : mmulf   %xmm0_low, %xmm0_low, %ufp1, opclass is now: 7.
521398000: system.cpu.fetch: after, Accl inst[1] checked: Instruction PC 0x409601, asm:   MULSS_XMM_M : mmulf   %xmm0_low, %xmm0_low, %ufp1, opclass is now: 38.
521409500: system.cpu.fetch: before, Accl inst[0] encoutner: Instruction PC 0x409601, asm:   MULSS_XMM_M : mmulf   %xmm0_low, %xmm0_low, %ufp1, opclass is now: 7.
521409500: system.cpu.fetch: after, Accl inst[1] checked: Instruction PC 0x409601, asm:   MULSS_XMM_M : mmulf   %xmm0_low, %xmm0_low, %ufp1, opclass is now: 38.
521419000: system.cpu.fetch: before, Accl inst[0] encoutner: Instruction PC 0x409601, asm:   MULSS_XMM_M : mmulf   %xmm0_low, %xmm0_low, %ufp1, opclass is now: 7.
521419000: system.cpu.fetch: after, Accl inst[1] checked: Instruction PC 0x409601, asm:   MULSS_XMM_M : mmulf   %xmm0_low, %xmm0_low, %ufp1, opclass is now: 38.
521428500: system.cpu.fetch: before, Accl inst[0] encoutner: Instruction PC 0x409601, asm:   MULSS_XMM_M : mmulf   %xmm0_low, %xmm0_low, %ufp1, opclass is now: 7.
521428500: system.cpu.fetch: after, Accl inst[1] checked: Instruction PC 0x409601, asm:   MULSS_XMM_M : mmulf   %xmm0_low, %xmm0_low, %ufp1, opclass is now: 38.
521440500: system.cpu.fetch: before, Accl inst[0] encoutner: Instruction PC 0x409601, asm:   MULSS_XMM_M : mmulf   %xmm0_low, %xmm0_low, %ufp1, opclass is now: 7.
521440500: system.cpu.fetch: after, Accl inst[1] checked: Instruction PC 0x409601, asm:   MULSS_XMM_M : mmulf   %xmm0_low, %xmm0_low, %ufp1, opclass is now: 38.
522770500: system.cpu.fetch: before, Accl inst[0] encoutner: Instruction PC 0x40bc37, asm:   MULSS_XMM_M : mmulf   %xmm0_low, %xmm0_low, %ufp1, opclass is now: 7.
522802000: system.cpu.fetch: before, Accl inst[0] encoutner: Instruction PC 0x40bc37, asm:   MULSS_XMM_M : mmulf   %xmm0_low, %xmm0_low, %ufp1, opclass is now: 7.
523116000: system.cpu.fetch: before, Accl inst[0] encoutner: Instruction PC 0x40c6ab, asm:   MULSS_XMM_M : mmulf   %xmm0_low, %xmm0_low, %ufp1, opclass is now: 7.
523132500: system.cpu.fetch: before, Accl inst[0] encoutner: Instruction PC 0x40c6ab, asm:   MULSS_XMM_M : mmulf   %xmm0_low, %xmm0_low, %ufp1, opclass is now: 7.
523142000: system.cpu.fetch: before, Accl inst[0] encoutner: Instruction PC 0x40c6ab, asm:   MULSS_XMM_M : mmulf   %xmm0_low, %xmm0_low, %ufp1, opclass is now: 7.
523148000: system.cpu.fetch: before, Accl inst[0] encoutner: Instruction PC 0x40c6ab, asm:   MULSS_XMM_M : mmulf   %xmm0_low, %xmm0_low, %ufp1, opclass is now: 7.
523169000: system.cpu.fetch: before, Accl inst[0] encoutner: Instruction PC 0x40c6ab, asm:   MULSS_XMM_M : mmulf   %xmm0_low, %xmm0_low, %ufp1, opclass is now: 7.
525166500: system.cpu.fetch: before, Accl inst[0] encoutner: Instruction PC 0x40fdae, asm:   MULSS_XMM_M : mmulf   %xmm0_low, %xmm0_low, %ufp1, opclass is now: 7.
525908000: system.cpu.fetch: before, Accl inst[0] encoutner: Instruction PC 0x4111a1, asm:   MULSS_XMM_M : mmulf   %xmm0_low, %xmm0_low, %ufp1, opclass is now: 7.
526865000: system.cpu.fetch: before, Accl inst[0] encoutner: Instruction PC 0x400bff, asm:   MULSS_XMM_M : mmulf   %xmm0_low, %xmm0_low, %ufp1, opclass is now: 7.
526865000: system.cpu.fetch: after, Accl inst[1] checked: Instruction PC 0x400bff, asm:   MULSS_XMM_M : mmulf   %xmm0_low, %xmm0_low, %ufp1, opclass is now: 38.
529144000: system.cpu.fetch: before, Accl inst[0] encoutner: Instruction PC 0x404a50, asm:   MULSS_XMM_M : mmulf   %xmm0_low, %xmm0_low, %ufp1, opclass is now: 7.
529144000: system.cpu.fetch: after, Accl inst[1] checked: Instruction PC 0x404a50, asm:   MULSS_XMM_M : mmulf   %xmm0_low, %xmm0_low, %ufp1, opclass is now: 38.
529176000: system.cpu.fetch: before, Accl inst[0] encoutner: Instruction PC 0x404a50, asm:   MULSS_XMM_M : mmulf   %xmm0_low, %xmm0_low, %ufp1, opclass is now: 7.
529176000: system.cpu.fetch: after, Accl inst[1] checked: Instruction PC 0x404a50, asm:   MULSS_XMM_M : mmulf   %xmm0_low, %xmm0_low, %ufp1, opclass is now: 38.
529183000: system.cpu.fetch: before, Accl inst[0] encoutner: Instruction PC 0x404a50, asm:   MULSS_XMM_M : mmulf   %xmm0_low, %xmm0_low, %ufp1, opclass is now: 7.
529183000: system.cpu.fetch: after, Accl inst[1] checked: Instruction PC 0x404a50, asm:   MULSS_XMM_M : mmulf   %xmm0_low, %xmm0_low, %ufp1, opclass is now: 38.
530169500: system.cpu.fetch: before, Accl inst[0] encoutner: Instruction PC 0x4064d6, asm:   MULSS_XMM_M : mmulf   %xmm0_low, %xmm0_low, %ufp1, opclass is now: 7.
530169500: system.cpu.fetch: after, Accl inst[1] checked: Instruction PC 0x4064d6, asm:   MULSS_XMM_M : mmulf   %xmm0_low, %xmm0_low, %ufp1, opclass is now: 38.
530188500: system.cpu.fetch: before, Accl inst[0] encoutner: Instruction PC 0x4064d6, asm:   MULSS_XMM_M : mmulf   %xmm0_low, %xmm0_low, %ufp1, opclass is now: 7.
530188500: system.cpu.fetch: after, Accl inst[1] checked: Instruction PC 0x4064d6, asm:   MULSS_XMM_M : mmulf   %xmm0_low, %xmm0_low, %ufp1, opclass is now: 38.
530198000: system.cpu.fetch: before, Accl inst[0] encoutner: Instruction PC 0x4064d6, asm:   MULSS_XMM_M : mmulf   %xmm0_low, %xmm0_low, %ufp1, opclass is now: 7.
530198000: system.cpu.fetch: after, Accl inst[1] checked: Instruction PC 0x4064d6, asm:   MULSS_XMM_M : mmulf   %xmm0_low, %xmm0_low, %ufp1, opclass is now: 38.
532015000: system.cpu.fetch: before, Accl inst[0] encoutner: Instruction PC 0x409601, asm:   MULSS_XMM_M : mmulf   %xmm0_low, %xmm0_low, %ufp1, opclass is now: 7.
532015000: system.cpu.fetch: after, Accl inst[1] checked: Instruction PC 0x409601, asm:   MULSS_XMM_M : mmulf   %xmm0_low, %xmm0_low, %ufp1, opclass is now: 38.
532028000: system.cpu.fetch: before, Accl inst[0] encoutner: Instruction PC 0x409601, asm:   MULSS_XMM_M : mmulf   %xmm0_low, %xmm0_low, %ufp1, opclass is now: 7.
532028000: system.cpu.fetch: after, Accl inst[1] checked: Instruction PC 0x409601, asm:   MULSS_XMM_M : mmulf   %xmm0_low, %xmm0_low, %ufp1, opclass is now: 38.
533380000: system.cpu.fetch: before, Accl inst[0] encoutner: Instruction PC 0x40bc37, asm:   MULSS_XMM_M : mmulf   %xmm0_low, %xmm0_low, %ufp1, opclass is now: 7.
533790500: system.cpu.fetch: before, Accl inst[0] encoutner: Instruction PC 0x40c6ab, asm:   MULSS_XMM_M : mmulf   %xmm0_low, %xmm0_low, %ufp1, opclass is now: 7.
533807000: system.cpu.fetch: before, Accl inst[0] encoutner: Instruction PC 0x40c6ab, asm:   MULSS_XMM_M : mmulf   %xmm0_low, %xmm0_low, %ufp1, opclass is now: 7.
533816500: system.cpu.fetch: before, Accl inst[0] encoutner: Instruction PC 0x40c6ab, asm:   MULSS_XMM_M : mmulf   %xmm0_low, %xmm0_low, %ufp1, opclass is now: 7.
533827000: system.cpu.fetch: before, Accl inst[0] encoutner: Instruction PC 0x40c6ab, asm:   MULSS_XMM_M : mmulf   %xmm0_low, %xmm0_low, %ufp1, opclass is now: 7.
533839500: system.cpu.fetch: before, Accl inst[0] encoutner: Instruction PC 0x40c6ab, asm:   MULSS_XMM_M : mmulf   %xmm0_low, %xmm0_low, %ufp1, opclass is now: 7.
533849000: system.cpu.fetch: before, Accl inst[0] encoutner: Instruction PC 0x40c6ab, asm:   MULSS_XMM_M : mmulf   %xmm0_low, %xmm0_low, %ufp1, opclass is now: 7.
535757000: system.cpu.fetch: before, Accl inst[0] encoutner: Instruction PC 0x40fdae, asm:   MULSS_XMM_M : mmulf   %xmm0_low, %xmm0_low, %ufp1, opclass is now: 7.
536476500: system.cpu.fetch: before, Accl inst[0] encoutner: Instruction PC 0x4111a1, asm:   MULSS_XMM_M : mmulf   %xmm0_low, %xmm0_low, %ufp1, opclass is now: 7.
536486500: system.cpu.fetch: before, Accl inst[0] encoutner: Instruction PC 0x4111a1, asm:   MULSS_XMM_M : mmulf   %xmm0_low, %xmm0_low, %ufp1, opclass is now: 7.
536497500: system.cpu.fetch: before, Accl inst[0] encoutner: Instruction PC 0x4111a1, asm:   MULSS_XMM_M : mmulf   %xmm0_low, %xmm0_low, %ufp1, opclass is now: 7.
536504500: system.cpu.fetch: before, Accl inst[0] encoutner: Instruction PC 0x4111a1, asm:   MULSS_XMM_M : mmulf   %xmm0_low, %xmm0_low, %ufp1, opclass is now: 7.
537398500: system.cpu.fetch: before, Accl inst[0] encoutner: Instruction PC 0x400bff, asm:   MULSS_XMM_M : mmulf   %xmm0_low, %xmm0_low, %ufp1, opclass is now: 7.
537398500: system.cpu.fetch: after, Accl inst[1] checked: Instruction PC 0x400bff, asm:   MULSS_XMM_M : mmulf   %xmm0_low, %xmm0_low, %ufp1, opclass is now: 38.
539594000: system.cpu.fetch: before, Accl inst[0] encoutner: Instruction PC 0x404a50, asm:   MULSS_XMM_M : mmulf   %xmm0_low, %xmm0_low, %ufp1, opclass is now: 7.
539594000: system.cpu.fetch: after, Accl inst[1] checked: Instruction PC 0x404a50, asm:   MULSS_XMM_M : mmulf   %xmm0_low, %xmm0_low, %ufp1, opclass is now: 38.
540572500: system.cpu.fetch: before, Accl inst[0] encoutner: Instruction PC 0x4064d6, asm:   MULSS_XMM_M : mmulf   %xmm0_low, %xmm0_low, %ufp1, opclass is now: 7.
540572500: system.cpu.fetch: after, Accl inst[1] checked: Instruction PC 0x4064d6, asm:   MULSS_XMM_M : mmulf   %xmm0_low, %xmm0_low, %ufp1, opclass is now: 38.
540582000: system.cpu.fetch: before, Accl inst[0] encoutner: Instruction PC 0x4064d6, asm:   MULSS_XMM_M : mmulf   %xmm0_low, %xmm0_low, %ufp1, opclass is now: 7.
540582000: system.cpu.fetch: after, Accl inst[1] checked: Instruction PC 0x4064d6, asm:   MULSS_XMM_M : mmulf   %xmm0_low, %xmm0_low, %ufp1, opclass is now: 38.
542287000: system.cpu.fetch: before, Accl inst[0] encoutner: Instruction PC 0x409601, asm:   MULSS_XMM_M : mmulf   %xmm0_low, %xmm0_low, %ufp1, opclass is now: 7.
542287000: system.cpu.fetch: after, Accl inst[1] checked: Instruction PC 0x409601, asm:   MULSS_XMM_M : mmulf   %xmm0_low, %xmm0_low, %ufp1, opclass is now: 38.
542300000: system.cpu.fetch: before, Accl inst[0] encoutner: Instruction PC 0x409601, asm:   MULSS_XMM_M : mmulf   %xmm0_low, %xmm0_low, %ufp1, opclass is now: 7.
542300000: system.cpu.fetch: after, Accl inst[1] checked: Instruction PC 0x409601, asm:   MULSS_XMM_M : mmulf   %xmm0_low, %xmm0_low, %ufp1, opclass is now: 38.
542311000: system.cpu.fetch: before, Accl inst[0] encoutner: Instruction PC 0x409601, asm:   MULSS_XMM_M : mmulf   %xmm0_low, %xmm0_low, %ufp1, opclass is now: 7.
542311000: system.cpu.fetch: after, Accl inst[1] checked: Instruction PC 0x409601, asm:   MULSS_XMM_M : mmulf   %xmm0_low, %xmm0_low, %ufp1, opclass is now: 38.
543548000: system.cpu.fetch: before, Accl inst[0] encoutner: Instruction PC 0x40bc37, asm:   MULSS_XMM_M : mmulf   %xmm0_low, %xmm0_low, %ufp1, opclass is now: 7.
543896500: system.cpu.fetch: before, Accl inst[0] encoutner: Instruction PC 0x40c6ab, asm:   MULSS_XMM_M : mmulf   %xmm0_low, %xmm0_low, %ufp1, opclass is now: 7.
545735500: system.cpu.fetch: before, Accl inst[0] encoutner: Instruction PC 0x40fdae, asm:   MULSS_XMM_M : mmulf   %xmm0_low, %xmm0_low, %ufp1, opclass is now: 7.
546396000: system.cpu.fetch: before, Accl inst[0] encoutner: Instruction PC 0x4111a1, asm:   MULSS_XMM_M : mmulf   %xmm0_low, %xmm0_low, %ufp1, opclass is now: 7.
546430000: system.cpu.fetch: before, Accl inst[0] encoutner: Instruction PC 0x4111a1, asm:   MULSS_XMM_M : mmulf   %xmm0_low, %xmm0_low, %ufp1, opclass is now: 7.
546442000: system.cpu.fetch: before, Accl inst[0] encoutner: Instruction PC 0x4111a1, asm:   MULSS_XMM_M : mmulf   %xmm0_low, %xmm0_low, %ufp1, opclass is now: 7.
547276500: system.cpu.fetch: before, Accl inst[0] encoutner: Instruction PC 0x400bff, asm:   MULSS_XMM_M : mmulf   %xmm0_low, %xmm0_low, %ufp1, opclass is now: 7.
547276500: system.cpu.fetch: after, Accl inst[1] checked: Instruction PC 0x400bff, asm:   MULSS_XMM_M : mmulf   %xmm0_low, %xmm0_low, %ufp1, opclass is now: 38.
549344500: system.cpu.fetch: before, Accl inst[0] encoutner: Instruction PC 0x404a50, asm:   MULSS_XMM_M : mmulf   %xmm0_low, %xmm0_low, %ufp1, opclass is now: 7.
549344500: system.cpu.fetch: after, Accl inst[1] checked: Instruction PC 0x404a50, asm:   MULSS_XMM_M : mmulf   %xmm0_low, %xmm0_low, %ufp1, opclass is now: 38.
550222500: system.cpu.fetch: before, Accl inst[0] encoutner: Instruction PC 0x4064d6, asm:   MULSS_XMM_M : mmulf   %xmm0_low, %xmm0_low, %ufp1, opclass is now: 7.
550222500: system.cpu.fetch: after, Accl inst[1] checked: Instruction PC 0x4064d6, asm:   MULSS_XMM_M : mmulf   %xmm0_low, %xmm0_low, %ufp1, opclass is now: 38.
551848000: system.cpu.fetch: before, Accl inst[0] encoutner: Instruction PC 0x409601, asm:   MULSS_XMM_M : mmulf   %xmm0_low, %xmm0_low, %ufp1, opclass is now: 7.
551848000: system.cpu.fetch: after, Accl inst[1] checked: Instruction PC 0x409601, asm:   MULSS_XMM_M : mmulf   %xmm0_low, %xmm0_low, %ufp1, opclass is now: 38.
553082000: system.cpu.fetch: before, Accl inst[0] encoutner: Instruction PC 0x40bc37, asm:   MULSS_XMM_M : mmulf   %xmm0_low, %xmm0_low, %ufp1, opclass is now: 7.
553427000: system.cpu.fetch: before, Accl inst[0] encoutner: Instruction PC 0x40c6ab, asm:   MULSS_XMM_M : mmulf   %xmm0_low, %xmm0_low, %ufp1, opclass is now: 7.
555204000: system.cpu.fetch: before, Accl inst[0] encoutner: Instruction PC 0x40fdae, asm:   MULSS_XMM_M : mmulf   %xmm0_low, %xmm0_low, %ufp1, opclass is now: 7.
555860500: system.cpu.fetch: before, Accl inst[0] encoutner: Instruction PC 0x4111a1, asm:   MULSS_XMM_M : mmulf   %xmm0_low, %xmm0_low, %ufp1, opclass is now: 7.
556723500: system.cpu.fetch: before, Accl inst[0] encoutner: Instruction PC 0x400bff, asm:   MULSS_XMM_M : mmulf   %xmm0_low, %xmm0_low, %ufp1, opclass is now: 7.
556723500: system.cpu.fetch: after, Accl inst[1] checked: Instruction PC 0x400bff, asm:   MULSS_XMM_M : mmulf   %xmm0_low, %xmm0_low, %ufp1, opclass is now: 38.
558735500: system.cpu.fetch: before, Accl inst[0] encoutner: Instruction PC 0x404a50, asm:   MULSS_XMM_M : mmulf   %xmm0_low, %xmm0_low, %ufp1, opclass is now: 7.
558735500: system.cpu.fetch: after, Accl inst[1] checked: Instruction PC 0x404a50, asm:   MULSS_XMM_M : mmulf   %xmm0_low, %xmm0_low, %ufp1, opclass is now: 38.
559602500: system.cpu.fetch: before, Accl inst[0] encoutner: Instruction PC 0x4064d6, asm:   MULSS_XMM_M : mmulf   %xmm0_low, %xmm0_low, %ufp1, opclass is now: 7.
559602500: system.cpu.fetch: after, Accl inst[1] checked: Instruction PC 0x4064d6, asm:   MULSS_XMM_M : mmulf   %xmm0_low, %xmm0_low, %ufp1, opclass is now: 38.
561194000: system.cpu.fetch: before, Accl inst[0] encoutner: Instruction PC 0x409601, asm:   MULSS_XMM_M : mmulf   %xmm0_low, %xmm0_low, %ufp1, opclass is now: 7.
561194000: system.cpu.fetch: after, Accl inst[1] checked: Instruction PC 0x409601, asm:   MULSS_XMM_M : mmulf   %xmm0_low, %xmm0_low, %ufp1, opclass is now: 38.
562437000: system.cpu.fetch: before, Accl inst[0] encoutner: Instruction PC 0x40bc37, asm:   MULSS_XMM_M : mmulf   %xmm0_low, %xmm0_low, %ufp1, opclass is now: 7.
562776500: system.cpu.fetch: before, Accl inst[0] encoutner: Instruction PC 0x40c6ab, asm:   MULSS_XMM_M : mmulf   %xmm0_low, %xmm0_low, %ufp1, opclass is now: 7.
564551500: system.cpu.fetch: before, Accl inst[0] encoutner: Instruction PC 0x40fdae, asm:   MULSS_XMM_M : mmulf   %xmm0_low, %xmm0_low, %ufp1, opclass is now: 7.
565195500: system.cpu.fetch: before, Accl inst[0] encoutner: Instruction PC 0x4111a1, asm:   MULSS_XMM_M : mmulf   %xmm0_low, %xmm0_low, %ufp1, opclass is now: 7.
566061000: system.cpu.fetch: before, Accl inst[0] encoutner: Instruction PC 0x400bff, asm:   MULSS_XMM_M : mmulf   %xmm0_low, %xmm0_low, %ufp1, opclass is now: 7.
566061000: system.cpu.fetch: after, Accl inst[1] checked: Instruction PC 0x400bff, asm:   MULSS_XMM_M : mmulf   %xmm0_low, %xmm0_low, %ufp1, opclass is now: 38.
568073000: system.cpu.fetch: before, Accl inst[0] encoutner: Instruction PC 0x404a50, asm:   MULSS_XMM_M : mmulf   %xmm0_low, %xmm0_low, %ufp1, opclass is now: 7.
568073000: system.cpu.fetch: after, Accl inst[1] checked: Instruction PC 0x404a50, asm:   MULSS_XMM_M : mmulf   %xmm0_low, %xmm0_low, %ufp1, opclass is now: 38.
568938000: system.cpu.fetch: before, Accl inst[0] encoutner: Instruction PC 0x4064d6, asm:   MULSS_XMM_M : mmulf   %xmm0_low, %xmm0_low, %ufp1, opclass is now: 7.
568938000: system.cpu.fetch: after, Accl inst[1] checked: Instruction PC 0x4064d6, asm:   MULSS_XMM_M : mmulf   %xmm0_low, %xmm0_low, %ufp1, opclass is now: 38.
570532500: system.cpu.fetch: before, Accl inst[0] encoutner: Instruction PC 0x409601, asm:   MULSS_XMM_M : mmulf   %xmm0_low, %xmm0_low, %ufp1, opclass is now: 7.
570532500: system.cpu.fetch: after, Accl inst[1] checked: Instruction PC 0x409601, asm:   MULSS_XMM_M : mmulf   %xmm0_low, %xmm0_low, %ufp1, opclass is now: 38.
571775000: system.cpu.fetch: before, Accl inst[0] encoutner: Instruction PC 0x40bc37, asm:   MULSS_XMM_M : mmulf   %xmm0_low, %xmm0_low, %ufp1, opclass is now: 7.
572112000: system.cpu.fetch: before, Accl inst[0] encoutner: Instruction PC 0x40c6ab, asm:   MULSS_XMM_M : mmulf   %xmm0_low, %xmm0_low, %ufp1, opclass is now: 7.
573889500: system.cpu.fetch: before, Accl inst[0] encoutner: Instruction PC 0x40fdae, asm:   MULSS_XMM_M : mmulf   %xmm0_low, %xmm0_low, %ufp1, opclass is now: 7.
574531000: system.cpu.fetch: before, Accl inst[0] encoutner: Instruction PC 0x4111a1, asm:   MULSS_XMM_M : mmulf   %xmm0_low, %xmm0_low, %ufp1, opclass is now: 7.
575396500: system.cpu.fetch: before, Accl inst[0] encoutner: Instruction PC 0x400bff, asm:   MULSS_XMM_M : mmulf   %xmm0_low, %xmm0_low, %ufp1, opclass is now: 7.
575396500: system.cpu.fetch: after, Accl inst[1] checked: Instruction PC 0x400bff, asm:   MULSS_XMM_M : mmulf   %xmm0_low, %xmm0_low, %ufp1, opclass is now: 38.
577409000: system.cpu.fetch: before, Accl inst[0] encoutner: Instruction PC 0x404a50, asm:   MULSS_XMM_M : mmulf   %xmm0_low, %xmm0_low, %ufp1, opclass is now: 7.
577409000: system.cpu.fetch: after, Accl inst[1] checked: Instruction PC 0x404a50, asm:   MULSS_XMM_M : mmulf   %xmm0_low, %xmm0_low, %ufp1, opclass is now: 38.
578273500: system.cpu.fetch: before, Accl inst[0] encoutner: Instruction PC 0x4064d6, asm:   MULSS_XMM_M : mmulf   %xmm0_low, %xmm0_low, %ufp1, opclass is now: 7.
578273500: system.cpu.fetch: after, Accl inst[1] checked: Instruction PC 0x4064d6, asm:   MULSS_XMM_M : mmulf   %xmm0_low, %xmm0_low, %ufp1, opclass is now: 38.
579868000: system.cpu.fetch: before, Accl inst[0] encoutner: Instruction PC 0x409601, asm:   MULSS_XMM_M : mmulf   %xmm0_low, %xmm0_low, %ufp1, opclass is now: 7.
579868000: system.cpu.fetch: after, Accl inst[1] checked: Instruction PC 0x409601, asm:   MULSS_XMM_M : mmulf   %xmm0_low, %xmm0_low, %ufp1, opclass is now: 38.
581113000: system.cpu.fetch: before, Accl inst[0] encoutner: Instruction PC 0x40bc37, asm:   MULSS_XMM_M : mmulf   %xmm0_low, %xmm0_low, %ufp1, opclass is now: 7.
581450000: system.cpu.fetch: before, Accl inst[0] encoutner: Instruction PC 0x40c6ab, asm:   MULSS_XMM_M : mmulf   %xmm0_low, %xmm0_low, %ufp1, opclass is now: 7.
583227500: system.cpu.fetch: before, Accl inst[0] encoutner: Instruction PC 0x40fdae, asm:   MULSS_XMM_M : mmulf   %xmm0_low, %xmm0_low, %ufp1, opclass is now: 7.
583869000: system.cpu.fetch: before, Accl inst[0] encoutner: Instruction PC 0x4111a1, asm:   MULSS_XMM_M : mmulf   %xmm0_low, %xmm0_low, %ufp1, opclass is now: 7.
584734500: system.cpu.fetch: before, Accl inst[0] encoutner: Instruction PC 0x400bff, asm:   MULSS_XMM_M : mmulf   %xmm0_low, %xmm0_low, %ufp1, opclass is now: 7.
584734500: system.cpu.fetch: after, Accl inst[1] checked: Instruction PC 0x400bff, asm:   MULSS_XMM_M : mmulf   %xmm0_low, %xmm0_low, %ufp1, opclass is now: 38.
586747000: system.cpu.fetch: before, Accl inst[0] encoutner: Instruction PC 0x404a50, asm:   MULSS_XMM_M : mmulf   %xmm0_low, %xmm0_low, %ufp1, opclass is now: 7.
586747000: system.cpu.fetch: after, Accl inst[1] checked: Instruction PC 0x404a50, asm:   MULSS_XMM_M : mmulf   %xmm0_low, %xmm0_low, %ufp1, opclass is now: 38.
587611500: system.cpu.fetch: before, Accl inst[0] encoutner: Instruction PC 0x4064d6, asm:   MULSS_XMM_M : mmulf   %xmm0_low, %xmm0_low, %ufp1, opclass is now: 7.
587611500: system.cpu.fetch: after, Accl inst[1] checked: Instruction PC 0x4064d6, asm:   MULSS_XMM_M : mmulf   %xmm0_low, %xmm0_low, %ufp1, opclass is now: 38.
589206000: system.cpu.fetch: before, Accl inst[0] encoutner: Instruction PC 0x409601, asm:   MULSS_XMM_M : mmulf   %xmm0_low, %xmm0_low, %ufp1, opclass is now: 7.
589206000: system.cpu.fetch: after, Accl inst[1] checked: Instruction PC 0x409601, asm:   MULSS_XMM_M : mmulf   %xmm0_low, %xmm0_low, %ufp1, opclass is now: 38.
590451000: system.cpu.fetch: before, Accl inst[0] encoutner: Instruction PC 0x40bc37, asm:   MULSS_XMM_M : mmulf   %xmm0_low, %xmm0_low, %ufp1, opclass is now: 7.
590788000: system.cpu.fetch: before, Accl inst[0] encoutner: Instruction PC 0x40c6ab, asm:   MULSS_XMM_M : mmulf   %xmm0_low, %xmm0_low, %ufp1, opclass is now: 7.
592565500: system.cpu.fetch: before, Accl inst[0] encoutner: Instruction PC 0x40fdae, asm:   MULSS_XMM_M : mmulf   %xmm0_low, %xmm0_low, %ufp1, opclass is now: 7.
593207000: system.cpu.fetch: before, Accl inst[0] encoutner: Instruction PC 0x4111a1, asm:   MULSS_XMM_M : mmulf   %xmm0_low, %xmm0_low, %ufp1, opclass is now: 7.
594072500: system.cpu.fetch: before, Accl inst[0] encoutner: Instruction PC 0x400bff, asm:   MULSS_XMM_M : mmulf   %xmm0_low, %xmm0_low, %ufp1, opclass is now: 7.
594072500: system.cpu.fetch: after, Accl inst[1] checked: Instruction PC 0x400bff, asm:   MULSS_XMM_M : mmulf   %xmm0_low, %xmm0_low, %ufp1, opclass is now: 38.
596085000: system.cpu.fetch: before, Accl inst[0] encoutner: Instruction PC 0x404a50, asm:   MULSS_XMM_M : mmulf   %xmm0_low, %xmm0_low, %ufp1, opclass is now: 7.
596085000: system.cpu.fetch: after, Accl inst[1] checked: Instruction PC 0x404a50, asm:   MULSS_XMM_M : mmulf   %xmm0_low, %xmm0_low, %ufp1, opclass is now: 38.
596949500: system.cpu.fetch: before, Accl inst[0] encoutner: Instruction PC 0x4064d6, asm:   MULSS_XMM_M : mmulf   %xmm0_low, %xmm0_low, %ufp1, opclass is now: 7.
596949500: system.cpu.fetch: after, Accl inst[1] checked: Instruction PC 0x4064d6, asm:   MULSS_XMM_M : mmulf   %xmm0_low, %xmm0_low, %ufp1, opclass is now: 38.
598544000: system.cpu.fetch: before, Accl inst[0] encoutner: Instruction PC 0x409601, asm:   MULSS_XMM_M : mmulf   %xmm0_low, %xmm0_low, %ufp1, opclass is now: 7.
598544000: system.cpu.fetch: after, Accl inst[1] checked: Instruction PC 0x409601, asm:   MULSS_XMM_M : mmulf   %xmm0_low, %xmm0_low, %ufp1, opclass is now: 38.
599789000: system.cpu.fetch: before, Accl inst[0] encoutner: Instruction PC 0x40bc37, asm:   MULSS_XMM_M : mmulf   %xmm0_low, %xmm0_low, %ufp1, opclass is now: 7.
600126000: system.cpu.fetch: before, Accl inst[0] encoutner: Instruction PC 0x40c6ab, asm:   MULSS_XMM_M : mmulf   %xmm0_low, %xmm0_low, %ufp1, opclass is now: 7.
601903500: system.cpu.fetch: before, Accl inst[0] encoutner: Instruction PC 0x40fdae, asm:   MULSS_XMM_M : mmulf   %xmm0_low, %xmm0_low, %ufp1, opclass is now: 7.
602545000: system.cpu.fetch: before, Accl inst[0] encoutner: Instruction PC 0x4111a1, asm:   MULSS_XMM_M : mmulf   %xmm0_low, %xmm0_low, %ufp1, opclass is now: 7.
603410500: system.cpu.fetch: before, Accl inst[0] encoutner: Instruction PC 0x400bff, asm:   MULSS_XMM_M : mmulf   %xmm0_low, %xmm0_low, %ufp1, opclass is now: 7.
603410500: system.cpu.fetch: after, Accl inst[1] checked: Instruction PC 0x400bff, asm:   MULSS_XMM_M : mmulf   %xmm0_low, %xmm0_low, %ufp1, opclass is now: 38.
605423000: system.cpu.fetch: before, Accl inst[0] encoutner: Instruction PC 0x404a50, asm:   MULSS_XMM_M : mmulf   %xmm0_low, %xmm0_low, %ufp1, opclass is now: 7.
605423000: system.cpu.fetch: after, Accl inst[1] checked: Instruction PC 0x404a50, asm:   MULSS_XMM_M : mmulf   %xmm0_low, %xmm0_low, %ufp1, opclass is now: 38.
606287500: system.cpu.fetch: before, Accl inst[0] encoutner: Instruction PC 0x4064d6, asm:   MULSS_XMM_M : mmulf   %xmm0_low, %xmm0_low, %ufp1, opclass is now: 7.
606287500: system.cpu.fetch: after, Accl inst[1] checked: Instruction PC 0x4064d6, asm:   MULSS_XMM_M : mmulf   %xmm0_low, %xmm0_low, %ufp1, opclass is now: 38.
607882000: system.cpu.fetch: before, Accl inst[0] encoutner: Instruction PC 0x409601, asm:   MULSS_XMM_M : mmulf   %xmm0_low, %xmm0_low, %ufp1, opclass is now: 7.
607882000: system.cpu.fetch: after, Accl inst[1] checked: Instruction PC 0x409601, asm:   MULSS_XMM_M : mmulf   %xmm0_low, %xmm0_low, %ufp1, opclass is now: 38.
609127000: system.cpu.fetch: before, Accl inst[0] encoutner: Instruction PC 0x40bc37, asm:   MULSS_XMM_M : mmulf   %xmm0_low, %xmm0_low, %ufp1, opclass is now: 7.
609464000: system.cpu.fetch: before, Accl inst[0] encoutner: Instruction PC 0x40c6ab, asm:   MULSS_XMM_M : mmulf   %xmm0_low, %xmm0_low, %ufp1, opclass is now: 7.
611241500: system.cpu.fetch: before, Accl inst[0] encoutner: Instruction PC 0x40fdae, asm:   MULSS_XMM_M : mmulf   %xmm0_low, %xmm0_low, %ufp1, opclass is now: 7.
611883000: system.cpu.fetch: before, Accl inst[0] encoutner: Instruction PC 0x4111a1, asm:   MULSS_XMM_M : mmulf   %xmm0_low, %xmm0_low, %ufp1, opclass is now: 7.
612748500: system.cpu.fetch: before, Accl inst[0] encoutner: Instruction PC 0x400bff, asm:   MULSS_XMM_M : mmulf   %xmm0_low, %xmm0_low, %ufp1, opclass is now: 7.
612748500: system.cpu.fetch: after, Accl inst[1] checked: Instruction PC 0x400bff, asm:   MULSS_XMM_M : mmulf   %xmm0_low, %xmm0_low, %ufp1, opclass is now: 38.
614761000: system.cpu.fetch: before, Accl inst[0] encoutner: Instruction PC 0x404a50, asm:   MULSS_XMM_M : mmulf   %xmm0_low, %xmm0_low, %ufp1, opclass is now: 7.
614761000: system.cpu.fetch: after, Accl inst[1] checked: Instruction PC 0x404a50, asm:   MULSS_XMM_M : mmulf   %xmm0_low, %xmm0_low, %ufp1, opclass is now: 38.
615625500: system.cpu.fetch: before, Accl inst[0] encoutner: Instruction PC 0x4064d6, asm:   MULSS_XMM_M : mmulf   %xmm0_low, %xmm0_low, %ufp1, opclass is now: 7.
615625500: system.cpu.fetch: after, Accl inst[1] checked: Instruction PC 0x4064d6, asm:   MULSS_XMM_M : mmulf   %xmm0_low, %xmm0_low, %ufp1, opclass is now: 38.
617220000: system.cpu.fetch: before, Accl inst[0] encoutner: Instruction PC 0x409601, asm:   MULSS_XMM_M : mmulf   %xmm0_low, %xmm0_low, %ufp1, opclass is now: 7.
617220000: system.cpu.fetch: after, Accl inst[1] checked: Instruction PC 0x409601, asm:   MULSS_XMM_M : mmulf   %xmm0_low, %xmm0_low, %ufp1, opclass is now: 38.
618465000: system.cpu.fetch: before, Accl inst[0] encoutner: Instruction PC 0x40bc37, asm:   MULSS_XMM_M : mmulf   %xmm0_low, %xmm0_low, %ufp1, opclass is now: 7.
618802000: system.cpu.fetch: before, Accl inst[0] encoutner: Instruction PC 0x40c6ab, asm:   MULSS_XMM_M : mmulf   %xmm0_low, %xmm0_low, %ufp1, opclass is now: 7.
620579500: system.cpu.fetch: before, Accl inst[0] encoutner: Instruction PC 0x40fdae, asm:   MULSS_XMM_M : mmulf   %xmm0_low, %xmm0_low, %ufp1, opclass is now: 7.
621221000: system.cpu.fetch: before, Accl inst[0] encoutner: Instruction PC 0x4111a1, asm:   MULSS_XMM_M : mmulf   %xmm0_low, %xmm0_low, %ufp1, opclass is now: 7.
622086500: system.cpu.fetch: before, Accl inst[0] encoutner: Instruction PC 0x400bff, asm:   MULSS_XMM_M : mmulf   %xmm0_low, %xmm0_low, %ufp1, opclass is now: 7.
622086500: system.cpu.fetch: after, Accl inst[1] checked: Instruction PC 0x400bff, asm:   MULSS_XMM_M : mmulf   %xmm0_low, %xmm0_low, %ufp1, opclass is now: 38.
624099000: system.cpu.fetch: before, Accl inst[0] encoutner: Instruction PC 0x404a50, asm:   MULSS_XMM_M : mmulf   %xmm0_low, %xmm0_low, %ufp1, opclass is now: 7.
624099000: system.cpu.fetch: after, Accl inst[1] checked: Instruction PC 0x404a50, asm:   MULSS_XMM_M : mmulf   %xmm0_low, %xmm0_low, %ufp1, opclass is now: 38.
624963500: system.cpu.fetch: before, Accl inst[0] encoutner: Instruction PC 0x4064d6, asm:   MULSS_XMM_M : mmulf   %xmm0_low, %xmm0_low, %ufp1, opclass is now: 7.
624963500: system.cpu.fetch: after, Accl inst[1] checked: Instruction PC 0x4064d6, asm:   MULSS_XMM_M : mmulf   %xmm0_low, %xmm0_low, %ufp1, opclass is now: 38.
626558000: system.cpu.fetch: before, Accl inst[0] encoutner: Instruction PC 0x409601, asm:   MULSS_XMM_M : mmulf   %xmm0_low, %xmm0_low, %ufp1, opclass is now: 7.
626558000: system.cpu.fetch: after, Accl inst[1] checked: Instruction PC 0x409601, asm:   MULSS_XMM_M : mmulf   %xmm0_low, %xmm0_low, %ufp1, opclass is now: 38.
627803000: system.cpu.fetch: before, Accl inst[0] encoutner: Instruction PC 0x40bc37, asm:   MULSS_XMM_M : mmulf   %xmm0_low, %xmm0_low, %ufp1, opclass is now: 7.
628140000: system.cpu.fetch: before, Accl inst[0] encoutner: Instruction PC 0x40c6ab, asm:   MULSS_XMM_M : mmulf   %xmm0_low, %xmm0_low, %ufp1, opclass is now: 7.
629917500: system.cpu.fetch: before, Accl inst[0] encoutner: Instruction PC 0x40fdae, asm:   MULSS_XMM_M : mmulf   %xmm0_low, %xmm0_low, %ufp1, opclass is now: 7.
630559000: system.cpu.fetch: before, Accl inst[0] encoutner: Instruction PC 0x4111a1, asm:   MULSS_XMM_M : mmulf   %xmm0_low, %xmm0_low, %ufp1, opclass is now: 7.
631424500: system.cpu.fetch: before, Accl inst[0] encoutner: Instruction PC 0x400bff, asm:   MULSS_XMM_M : mmulf   %xmm0_low, %xmm0_low, %ufp1, opclass is now: 7.
631424500: system.cpu.fetch: after, Accl inst[1] checked: Instruction PC 0x400bff, asm:   MULSS_XMM_M : mmulf   %xmm0_low, %xmm0_low, %ufp1, opclass is now: 38.
633437000: system.cpu.fetch: before, Accl inst[0] encoutner: Instruction PC 0x404a50, asm:   MULSS_XMM_M : mmulf   %xmm0_low, %xmm0_low, %ufp1, opclass is now: 7.
633437000: system.cpu.fetch: after, Accl inst[1] checked: Instruction PC 0x404a50, asm:   MULSS_XMM_M : mmulf   %xmm0_low, %xmm0_low, %ufp1, opclass is now: 38.
634301500: system.cpu.fetch: before, Accl inst[0] encoutner: Instruction PC 0x4064d6, asm:   MULSS_XMM_M : mmulf   %xmm0_low, %xmm0_low, %ufp1, opclass is now: 7.
634301500: system.cpu.fetch: after, Accl inst[1] checked: Instruction PC 0x4064d6, asm:   MULSS_XMM_M : mmulf   %xmm0_low, %xmm0_low, %ufp1, opclass is now: 38.
635896000: system.cpu.fetch: before, Accl inst[0] encoutner: Instruction PC 0x409601, asm:   MULSS_XMM_M : mmulf   %xmm0_low, %xmm0_low, %ufp1, opclass is now: 7.
635896000: system.cpu.fetch: after, Accl inst[1] checked: Instruction PC 0x409601, asm:   MULSS_XMM_M : mmulf   %xmm0_low, %xmm0_low, %ufp1, opclass is now: 38.
637141000: system.cpu.fetch: before, Accl inst[0] encoutner: Instruction PC 0x40bc37, asm:   MULSS_XMM_M : mmulf   %xmm0_low, %xmm0_low, %ufp1, opclass is now: 7.
637478000: system.cpu.fetch: before, Accl inst[0] encoutner: Instruction PC 0x40c6ab, asm:   MULSS_XMM_M : mmulf   %xmm0_low, %xmm0_low, %ufp1, opclass is now: 7.
639255500: system.cpu.fetch: before, Accl inst[0] encoutner: Instruction PC 0x40fdae, asm:   MULSS_XMM_M : mmulf   %xmm0_low, %xmm0_low, %ufp1, opclass is now: 7.
639897000: system.cpu.fetch: before, Accl inst[0] encoutner: Instruction PC 0x4111a1, asm:   MULSS_XMM_M : mmulf   %xmm0_low, %xmm0_low, %ufp1, opclass is now: 7.
640762500: system.cpu.fetch: before, Accl inst[0] encoutner: Instruction PC 0x400bff, asm:   MULSS_XMM_M : mmulf   %xmm0_low, %xmm0_low, %ufp1, opclass is now: 7.
640762500: system.cpu.fetch: after, Accl inst[1] checked: Instruction PC 0x400bff, asm:   MULSS_XMM_M : mmulf   %xmm0_low, %xmm0_low, %ufp1, opclass is now: 38.
642775000: system.cpu.fetch: before, Accl inst[0] encoutner: Instruction PC 0x404a50, asm:   MULSS_XMM_M : mmulf   %xmm0_low, %xmm0_low, %ufp1, opclass is now: 7.
642775000: system.cpu.fetch: after, Accl inst[1] checked: Instruction PC 0x404a50, asm:   MULSS_XMM_M : mmulf   %xmm0_low, %xmm0_low, %ufp1, opclass is now: 38.
643639500: system.cpu.fetch: before, Accl inst[0] encoutner: Instruction PC 0x4064d6, asm:   MULSS_XMM_M : mmulf   %xmm0_low, %xmm0_low, %ufp1, opclass is now: 7.
643639500: system.cpu.fetch: after, Accl inst[1] checked: Instruction PC 0x4064d6, asm:   MULSS_XMM_M : mmulf   %xmm0_low, %xmm0_low, %ufp1, opclass is now: 38.
645234000: system.cpu.fetch: before, Accl inst[0] encoutner: Instruction PC 0x409601, asm:   MULSS_XMM_M : mmulf   %xmm0_low, %xmm0_low, %ufp1, opclass is now: 7.
645234000: system.cpu.fetch: after, Accl inst[1] checked: Instruction PC 0x409601, asm:   MULSS_XMM_M : mmulf   %xmm0_low, %xmm0_low, %ufp1, opclass is now: 38.
646479000: system.cpu.fetch: before, Accl inst[0] encoutner: Instruction PC 0x40bc37, asm:   MULSS_XMM_M : mmulf   %xmm0_low, %xmm0_low, %ufp1, opclass is now: 7.
646816000: system.cpu.fetch: before, Accl inst[0] encoutner: Instruction PC 0x40c6ab, asm:   MULSS_XMM_M : mmulf   %xmm0_low, %xmm0_low, %ufp1, opclass is now: 7.
648593500: system.cpu.fetch: before, Accl inst[0] encoutner: Instruction PC 0x40fdae, asm:   MULSS_XMM_M : mmulf   %xmm0_low, %xmm0_low, %ufp1, opclass is now: 7.
649235000: system.cpu.fetch: before, Accl inst[0] encoutner: Instruction PC 0x4111a1, asm:   MULSS_XMM_M : mmulf   %xmm0_low, %xmm0_low, %ufp1, opclass is now: 7.
650100500: system.cpu.fetch: before, Accl inst[0] encoutner: Instruction PC 0x400bff, asm:   MULSS_XMM_M : mmulf   %xmm0_low, %xmm0_low, %ufp1, opclass is now: 7.
650100500: system.cpu.fetch: after, Accl inst[1] checked: Instruction PC 0x400bff, asm:   MULSS_XMM_M : mmulf   %xmm0_low, %xmm0_low, %ufp1, opclass is now: 38.
652113000: system.cpu.fetch: before, Accl inst[0] encoutner: Instruction PC 0x404a50, asm:   MULSS_XMM_M : mmulf   %xmm0_low, %xmm0_low, %ufp1, opclass is now: 7.
652113000: system.cpu.fetch: after, Accl inst[1] checked: Instruction PC 0x404a50, asm:   MULSS_XMM_M : mmulf   %xmm0_low, %xmm0_low, %ufp1, opclass is now: 38.
652977500: system.cpu.fetch: before, Accl inst[0] encoutner: Instruction PC 0x4064d6, asm:   MULSS_XMM_M : mmulf   %xmm0_low, %xmm0_low, %ufp1, opclass is now: 7.
652977500: system.cpu.fetch: after, Accl inst[1] checked: Instruction PC 0x4064d6, asm:   MULSS_XMM_M : mmulf   %xmm0_low, %xmm0_low, %ufp1, opclass is now: 38.
654572000: system.cpu.fetch: before, Accl inst[0] encoutner: Instruction PC 0x409601, asm:   MULSS_XMM_M : mmulf   %xmm0_low, %xmm0_low, %ufp1, opclass is now: 7.
654572000: system.cpu.fetch: after, Accl inst[1] checked: Instruction PC 0x409601, asm:   MULSS_XMM_M : mmulf   %xmm0_low, %xmm0_low, %ufp1, opclass is now: 38.
655817000: system.cpu.fetch: before, Accl inst[0] encoutner: Instruction PC 0x40bc37, asm:   MULSS_XMM_M : mmulf   %xmm0_low, %xmm0_low, %ufp1, opclass is now: 7.
656154000: system.cpu.fetch: before, Accl inst[0] encoutner: Instruction PC 0x40c6ab, asm:   MULSS_XMM_M : mmulf   %xmm0_low, %xmm0_low, %ufp1, opclass is now: 7.
657931500: system.cpu.fetch: before, Accl inst[0] encoutner: Instruction PC 0x40fdae, asm:   MULSS_XMM_M : mmulf   %xmm0_low, %xmm0_low, %ufp1, opclass is now: 7.
658573000: system.cpu.fetch: before, Accl inst[0] encoutner: Instruction PC 0x4111a1, asm:   MULSS_XMM_M : mmulf   %xmm0_low, %xmm0_low, %ufp1, opclass is now: 7.
659438500: system.cpu.fetch: before, Accl inst[0] encoutner: Instruction PC 0x400bff, asm:   MULSS_XMM_M : mmulf   %xmm0_low, %xmm0_low, %ufp1, opclass is now: 7.
659438500: system.cpu.fetch: after, Accl inst[1] checked: Instruction PC 0x400bff, asm:   MULSS_XMM_M : mmulf   %xmm0_low, %xmm0_low, %ufp1, opclass is now: 38.
661451000: system.cpu.fetch: before, Accl inst[0] encoutner: Instruction PC 0x404a50, asm:   MULSS_XMM_M : mmulf   %xmm0_low, %xmm0_low, %ufp1, opclass is now: 7.
661451000: system.cpu.fetch: after, Accl inst[1] checked: Instruction PC 0x404a50, asm:   MULSS_XMM_M : mmulf   %xmm0_low, %xmm0_low, %ufp1, opclass is now: 38.
662315500: system.cpu.fetch: before, Accl inst[0] encoutner: Instruction PC 0x4064d6, asm:   MULSS_XMM_M : mmulf   %xmm0_low, %xmm0_low, %ufp1, opclass is now: 7.
662315500: system.cpu.fetch: after, Accl inst[1] checked: Instruction PC 0x4064d6, asm:   MULSS_XMM_M : mmulf   %xmm0_low, %xmm0_low, %ufp1, opclass is now: 38.
663910000: system.cpu.fetch: before, Accl inst[0] encoutner: Instruction PC 0x409601, asm:   MULSS_XMM_M : mmulf   %xmm0_low, %xmm0_low, %ufp1, opclass is now: 7.
663910000: system.cpu.fetch: after, Accl inst[1] checked: Instruction PC 0x409601, asm:   MULSS_XMM_M : mmulf   %xmm0_low, %xmm0_low, %ufp1, opclass is now: 38.
665155000: system.cpu.fetch: before, Accl inst[0] encoutner: Instruction PC 0x40bc37, asm:   MULSS_XMM_M : mmulf   %xmm0_low, %xmm0_low, %ufp1, opclass is now: 7.
665492000: system.cpu.fetch: before, Accl inst[0] encoutner: Instruction PC 0x40c6ab, asm:   MULSS_XMM_M : mmulf   %xmm0_low, %xmm0_low, %ufp1, opclass is now: 7.
667269500: system.cpu.fetch: before, Accl inst[0] encoutner: Instruction PC 0x40fdae, asm:   MULSS_XMM_M : mmulf   %xmm0_low, %xmm0_low, %ufp1, opclass is now: 7.
667911000: system.cpu.fetch: before, Accl inst[0] encoutner: Instruction PC 0x4111a1, asm:   MULSS_XMM_M : mmulf   %xmm0_low, %xmm0_low, %ufp1, opclass is now: 7.
668776500: system.cpu.fetch: before, Accl inst[0] encoutner: Instruction PC 0x400bff, asm:   MULSS_XMM_M : mmulf   %xmm0_low, %xmm0_low, %ufp1, opclass is now: 7.
668776500: system.cpu.fetch: after, Accl inst[1] checked: Instruction PC 0x400bff, asm:   MULSS_XMM_M : mmulf   %xmm0_low, %xmm0_low, %ufp1, opclass is now: 38.
670789000: system.cpu.fetch: before, Accl inst[0] encoutner: Instruction PC 0x404a50, asm:   MULSS_XMM_M : mmulf   %xmm0_low, %xmm0_low, %ufp1, opclass is now: 7.
670789000: system.cpu.fetch: after, Accl inst[1] checked: Instruction PC 0x404a50, asm:   MULSS_XMM_M : mmulf   %xmm0_low, %xmm0_low, %ufp1, opclass is now: 38.
671653500: system.cpu.fetch: before, Accl inst[0] encoutner: Instruction PC 0x4064d6, asm:   MULSS_XMM_M : mmulf   %xmm0_low, %xmm0_low, %ufp1, opclass is now: 7.
671653500: system.cpu.fetch: after, Accl inst[1] checked: Instruction PC 0x4064d6, asm:   MULSS_XMM_M : mmulf   %xmm0_low, %xmm0_low, %ufp1, opclass is now: 38.
673248000: system.cpu.fetch: before, Accl inst[0] encoutner: Instruction PC 0x409601, asm:   MULSS_XMM_M : mmulf   %xmm0_low, %xmm0_low, %ufp1, opclass is now: 7.
673248000: system.cpu.fetch: after, Accl inst[1] checked: Instruction PC 0x409601, asm:   MULSS_XMM_M : mmulf   %xmm0_low, %xmm0_low, %ufp1, opclass is now: 38.
674493000: system.cpu.fetch: before, Accl inst[0] encoutner: Instruction PC 0x40bc37, asm:   MULSS_XMM_M : mmulf   %xmm0_low, %xmm0_low, %ufp1, opclass is now: 7.
674830000: system.cpu.fetch: before, Accl inst[0] encoutner: Instruction PC 0x40c6ab, asm:   MULSS_XMM_M : mmulf   %xmm0_low, %xmm0_low, %ufp1, opclass is now: 7.
676607500: system.cpu.fetch: before, Accl inst[0] encoutner: Instruction PC 0x40fdae, asm:   MULSS_XMM_M : mmulf   %xmm0_low, %xmm0_low, %ufp1, opclass is now: 7.
677249000: system.cpu.fetch: before, Accl inst[0] encoutner: Instruction PC 0x4111a1, asm:   MULSS_XMM_M : mmulf   %xmm0_low, %xmm0_low, %ufp1, opclass is now: 7.
678114500: system.cpu.fetch: before, Accl inst[0] encoutner: Instruction PC 0x400bff, asm:   MULSS_XMM_M : mmulf   %xmm0_low, %xmm0_low, %ufp1, opclass is now: 7.
678114500: system.cpu.fetch: after, Accl inst[1] checked: Instruction PC 0x400bff, asm:   MULSS_XMM_M : mmulf   %xmm0_low, %xmm0_low, %ufp1, opclass is now: 38.
680127000: system.cpu.fetch: before, Accl inst[0] encoutner: Instruction PC 0x404a50, asm:   MULSS_XMM_M : mmulf   %xmm0_low, %xmm0_low, %ufp1, opclass is now: 7.
[...]
2287310500: system.cpu.fetch: after, Accl inst[1] checked: Instruction PC 0x40bc37, asm:   MULSS_XMM_M : mmulf   %xmm0_low, %xmm0_low, %ufp1, opclass is now: 38.
2287652500: system.cpu.fetch: before, Accl inst[0] encoutner: Instruction PC 0x40c6ab, asm:   MULSS_XMM_M : mmulf   %xmm0_low, %xmm0_low, %ufp1, opclass is now: 7.
2287652500: system.cpu.fetch: after, Accl inst[1] checked: Instruction PC 0x40c6ab, asm:   MULSS_XMM_M : mmulf   %xmm0_low, %xmm0_low, %ufp1, opclass is now: 38.
2289431500: system.cpu.fetch: before, Accl inst[0] encoutner: Instruction PC 0x40fdae, asm:   MULSS_XMM_M : mmulf   %xmm0_low, %xmm0_low, %ufp1, opclass is now: 7.
2289431500: system.cpu.fetch: after, Accl inst[1] checked: Instruction PC 0x40fdae, asm:   MULSS_XMM_M : mmulf   %xmm0_low, %xmm0_low, %ufp1, opclass is now: 38.
2290078000: system.cpu.fetch: before, Accl inst[0] encoutner: Instruction PC 0x4111a1, asm:   MULSS_XMM_M : mmulf   %xmm0_low, %xmm0_low, %ufp1, opclass is now: 7.
2290078000: system.cpu.fetch: after, Accl inst[1] checked: Instruction PC 0x4111a1, asm:   MULSS_XMM_M : mmulf   %xmm0_low, %xmm0_low, %ufp1, opclass is now: 38.
2290948500: system.cpu.fetch: before, Accl inst[0] encoutner: Instruction PC 0x400bff, asm:   MULSS_XMM_M : mmulf   %xmm0_low, %xmm0_low, %ufp1, opclass is now: 7.
2290948500: system.cpu.fetch: after, Accl inst[1] checked: Instruction PC 0x400bff, asm:   MULSS_XMM_M : mmulf   %xmm0_low, %xmm0_low, %ufp1, opclass is now: 38.
2292958500: system.cpu.fetch: before, Accl inst[0] encoutner: Instruction PC 0x404a50, asm:   MULSS_XMM_M : mmulf   %xmm0_low, %xmm0_low, %ufp1, opclass is now: 7.
2292958500: system.cpu.fetch: after, Accl inst[1] checked: Instruction PC 0x404a50, asm:   MULSS_XMM_M : mmulf   %xmm0_low, %xmm0_low, %ufp1, opclass is now: 38.
2293820500: system.cpu.fetch: before, Accl inst[0] encoutner: Instruction PC 0x4064d6, asm:   MULSS_XMM_M : mmulf   %xmm0_low, %xmm0_low, %ufp1, opclass is now: 7.
2293820500: system.cpu.fetch: after, Accl inst[1] checked: Instruction PC 0x4064d6, asm:   MULSS_XMM_M : mmulf   %xmm0_low, %xmm0_low, %ufp1, opclass is now: 38.
2295405500: system.cpu.fetch: before, Accl inst[0] encoutner: Instruction PC 0x409601, asm:   MULSS_XMM_M : mmulf   %xmm0_low, %xmm0_low, %ufp1, opclass is now: 7.
2295405500: system.cpu.fetch: after, Accl inst[1] checked: Instruction PC 0x409601, asm:   MULSS_XMM_M : mmulf   %xmm0_low, %xmm0_low, %ufp1, opclass is now: 38.
2296648000: system.cpu.fetch: before, Accl inst[0] encoutner: Instruction PC 0x40bc37, asm:   MULSS_XMM_M : mmulf   %xmm0_low, %xmm0_low, %ufp1, opclass is now: 7.
2296648000: system.cpu.fetch: after, Accl inst[1] checked: Instruction PC 0x40bc37, asm:   MULSS_XMM_M : mmulf   %xmm0_low, %xmm0_low, %ufp1, opclass is now: 38.
2296990000: system.cpu.fetch: before, Accl inst[0] encoutner: Instruction PC 0x40c6ab, asm:   MULSS_XMM_M : mmulf   %xmm0_low, %xmm0_low, %ufp1, opclass is now: 7.
2296990000: system.cpu.fetch: after, Accl inst[1] checked: Instruction PC 0x40c6ab, asm:   MULSS_XMM_M : mmulf   %xmm0_low, %xmm0_low, %ufp1, opclass is now: 38.
2298769000: system.cpu.fetch: before, Accl inst[0] encoutner: Instruction PC 0x40fdae, asm:   MULSS_XMM_M : mmulf   %xmm0_low, %xmm0_low, %ufp1, opclass is now: 7.
2298769000: system.cpu.fetch: after, Accl inst[1] checked: Instruction PC 0x40fdae, asm:   MULSS_XMM_M : mmulf   %xmm0_low, %xmm0_low, %ufp1, opclass is now: 38.
2299415500: system.cpu.fetch: before, Accl inst[0] encoutner: Instruction PC 0x4111a1, asm:   MULSS_XMM_M : mmulf   %xmm0_low, %xmm0_low, %ufp1, opclass is now: 7.
2299415500: system.cpu.fetch: after, Accl inst[1] checked: Instruction PC 0x4111a1, asm:   MULSS_XMM_M : mmulf   %xmm0_low, %xmm0_low, %ufp1, opclass is now: 38.
2300286000: system.cpu.fetch: before, Accl inst[0] encoutner: Instruction PC 0x400bff, asm:   MULSS_XMM_M : mmulf   %xmm0_low, %xmm0_low, %ufp1, opclass is now: 7.
2300286000: system.cpu.fetch: after, Accl inst[1] checked: Instruction PC 0x400bff, asm:   MULSS_XMM_M : mmulf   %xmm0_low, %xmm0_low, %ufp1, opclass is now: 38.
2302296000: system.cpu.fetch: before, Accl inst[0] encoutner: Instruction PC 0x404a50, asm:   MULSS_XMM_M : mmulf   %xmm0_low, %xmm0_low, %ufp1, opclass is now: 7.
2302296000: system.cpu.fetch: after, Accl inst[1] checked: Instruction PC 0x404a50, asm:   MULSS_XMM_M : mmulf   %xmm0_low, %xmm0_low, %ufp1, opclass is now: 38.
2303158000: system.cpu.fetch: before, Accl inst[0] encoutner: Instruction PC 0x4064d6, asm:   MULSS_XMM_M : mmulf   %xmm0_low, %xmm0_low, %ufp1, opclass is now: 7.
2303158000: system.cpu.fetch: after, Accl inst[1] checked: Instruction PC 0x4064d6, asm:   MULSS_XMM_M : mmulf   %xmm0_low, %xmm0_low, %ufp1, opclass is now: 38.
2304743000: system.cpu.fetch: before, Accl inst[0] encoutner: Instruction PC 0x409601, asm:   MULSS_XMM_M : mmulf   %xmm0_low, %xmm0_low, %ufp1, opclass is now: 7.
2304743000: system.cpu.fetch: after, Accl inst[1] checked: Instruction PC 0x409601, asm:   MULSS_XMM_M : mmulf   %xmm0_low, %xmm0_low, %ufp1, opclass is now: 38.
2305985500: system.cpu.fetch: before, Accl inst[0] encoutner: Instruction PC 0x40bc37, asm:   MULSS_XMM_M : mmulf   %xmm0_low, %xmm0_low, %ufp1, opclass is now: 7.
2305985500: system.cpu.fetch: after, Accl inst[1] checked: Instruction PC 0x40bc37, asm:   MULSS_XMM_M : mmulf   %xmm0_low, %xmm0_low, %ufp1, opclass is now: 38.
2306327500: system.cpu.fetch: before, Accl inst[0] encoutner: Instruction PC 0x40c6ab, asm:   MULSS_XMM_M : mmulf   %xmm0_low, %xmm0_low, %ufp1, opclass is now: 7.
2306327500: system.cpu.fetch: after, Accl inst[1] checked: Instruction PC 0x40c6ab, asm:   MULSS_XMM_M : mmulf   %xmm0_low, %xmm0_low, %ufp1, opclass is now: 38.
2308106500: system.cpu.fetch: before, Accl inst[0] encoutner: Instruction PC 0x40fdae, asm:   MULSS_XMM_M : mmulf   %xmm0_low, %xmm0_low, %ufp1, opclass is now: 7.
2308106500: system.cpu.fetch: after, Accl inst[1] checked: Instruction PC 0x40fdae, asm:   MULSS_XMM_M : mmulf   %xmm0_low, %xmm0_low, %ufp1, opclass is now: 38.
2308753000: system.cpu.fetch: before, Accl inst[0] encoutner: Instruction PC 0x4111a1, asm:   MULSS_XMM_M : mmulf   %xmm0_low, %xmm0_low, %ufp1, opclass is now: 7.
2308753000: system.cpu.fetch: after, Accl inst[1] checked: Instruction PC 0x4111a1, asm:   MULSS_XMM_M : mmulf   %xmm0_low, %xmm0_low, %ufp1, opclass is now: 38.
2309623500: system.cpu.fetch: before, Accl inst[0] encoutner: Instruction PC 0x400bff, asm:   MULSS_XMM_M : mmulf   %xmm0_low, %xmm0_low, %ufp1, opclass is now: 7.
2309623500: system.cpu.fetch: after, Accl inst[1] checked: Instruction PC 0x400bff, asm:   MULSS_XMM_M : mmulf   %xmm0_low, %xmm0_low, %ufp1, opclass is now: 38.
2311633500: system.cpu.fetch: before, Accl inst[0] encoutner: Instruction PC 0x404a50, asm:   MULSS_XMM_M : mmulf   %xmm0_low, %xmm0_low, %ufp1, opclass is now: 7.
2311633500: system.cpu.fetch: after, Accl inst[1] checked: Instruction PC 0x404a50, asm:   MULSS_XMM_M : mmulf   %xmm0_low, %xmm0_low, %ufp1, opclass is now: 38.
2312495500: system.cpu.fetch: before, Accl inst[0] encoutner: Instruction PC 0x4064d6, asm:   MULSS_XMM_M : mmulf   %xmm0_low, %xmm0_low, %ufp1, opclass is now: 7.
2312495500: system.cpu.fetch: after, Accl inst[1] checked: Instruction PC 0x4064d6, asm:   MULSS_XMM_M : mmulf   %xmm0_low, %xmm0_low, %ufp1, opclass is now: 38.
2314080500: system.cpu.fetch: before, Accl inst[0] encoutner: Instruction PC 0x409601, asm:   MULSS_XMM_M : mmulf   %xmm0_low, %xmm0_low, %ufp1, opclass is now: 7.
2314080500: system.cpu.fetch: after, Accl inst[1] checked: Instruction PC 0x409601, asm:   MULSS_XMM_M : mmulf   %xmm0_low, %xmm0_low, %ufp1, opclass is now: 38.
2315323000: system.cpu.fetch: before, Accl inst[0] encoutner: Instruction PC 0x40bc37, asm:   MULSS_XMM_M : mmulf   %xmm0_low, %xmm0_low, %ufp1, opclass is now: 7.
2315323000: system.cpu.fetch: after, Accl inst[1] checked: Instruction PC 0x40bc37, asm:   MULSS_XMM_M : mmulf   %xmm0_low, %xmm0_low, %ufp1, opclass is now: 38.
2315665000: system.cpu.fetch: before, Accl inst[0] encoutner: Instruction PC 0x40c6ab, asm:   MULSS_XMM_M : mmulf   %xmm0_low, %xmm0_low, %ufp1, opclass is now: 7.
2315665000: system.cpu.fetch: after, Accl inst[1] checked: Instruction PC 0x40c6ab, asm:   MULSS_XMM_M : mmulf   %xmm0_low, %xmm0_low, %ufp1, opclass is now: 38.
2317444000: system.cpu.fetch: before, Accl inst[0] encoutner: Instruction PC 0x40fdae, asm:   MULSS_XMM_M : mmulf   %xmm0_low, %xmm0_low, %ufp1, opclass is now: 7.
2317444000: system.cpu.fetch: after, Accl inst[1] checked: Instruction PC 0x40fdae, asm:   MULSS_XMM_M : mmulf   %xmm0_low, %xmm0_low, %ufp1, opclass is now: 38.
2318090500: system.cpu.fetch: before, Accl inst[0] encoutner: Instruction PC 0x4111a1, asm:   MULSS_XMM_M : mmulf   %xmm0_low, %xmm0_low, %ufp1, opclass is now: 7.
2318090500: system.cpu.fetch: after, Accl inst[1] checked: Instruction PC 0x4111a1, asm:   MULSS_XMM_M : mmulf   %xmm0_low, %xmm0_low, %ufp1, opclass is now: 38.
2318961000: system.cpu.fetch: before, Accl inst[0] encoutner: Instruction PC 0x400bff, asm:   MULSS_XMM_M : mmulf   %xmm0_low, %xmm0_low, %ufp1, opclass is now: 7.
2318961000: system.cpu.fetch: after, Accl inst[1] checked: Instruction PC 0x400bff, asm:   MULSS_XMM_M : mmulf   %xmm0_low, %xmm0_low, %ufp1, opclass is now: 38.
2320971000: system.cpu.fetch: before, Accl inst[0] encoutner: Instruction PC 0x404a50, asm:   MULSS_XMM_M : mmulf   %xmm0_low, %xmm0_low, %ufp1, opclass is now: 7.
2320971000: system.cpu.fetch: after, Accl inst[1] checked: Instruction PC 0x404a50, asm:   MULSS_XMM_M : mmulf   %xmm0_low, %xmm0_low, %ufp1, opclass is now: 38.
2321833000: system.cpu.fetch: before, Accl inst[0] encoutner: Instruction PC 0x4064d6, asm:   MULSS_XMM_M : mmulf   %xmm0_low, %xmm0_low, %ufp1, opclass is now: 7.
2321833000: system.cpu.fetch: after, Accl inst[1] checked: Instruction PC 0x4064d6, asm:   MULSS_XMM_M : mmulf   %xmm0_low, %xmm0_low, %ufp1, opclass is now: 38.
2323418000: system.cpu.fetch: before, Accl inst[0] encoutner: Instruction PC 0x409601, asm:   MULSS_XMM_M : mmulf   %xmm0_low, %xmm0_low, %ufp1, opclass is now: 7.
2323418000: system.cpu.fetch: after, Accl inst[1] checked: Instruction PC 0x409601, asm:   MULSS_XMM_M : mmulf   %xmm0_low, %xmm0_low, %ufp1, opclass is now: 38.
2324660500: system.cpu.fetch: before, Accl inst[0] encoutner: Instruction PC 0x40bc37, asm:   MULSS_XMM_M : mmulf   %xmm0_low, %xmm0_low, %ufp1, opclass is now: 7.
2324660500: system.cpu.fetch: after, Accl inst[1] checked: Instruction PC 0x40bc37, asm:   MULSS_XMM_M : mmulf   %xmm0_low, %xmm0_low, %ufp1, opclass is now: 38.
2325002500: system.cpu.fetch: before, Accl inst[0] encoutner: Instruction PC 0x40c6ab, asm:   MULSS_XMM_M : mmulf   %xmm0_low, %xmm0_low, %ufp1, opclass is now: 7.
2325002500: system.cpu.fetch: after, Accl inst[1] checked: Instruction PC 0x40c6ab, asm:   MULSS_XMM_M : mmulf   %xmm0_low, %xmm0_low, %ufp1, opclass is now: 38.
2326781500: system.cpu.fetch: before, Accl inst[0] encoutner: Instruction PC 0x40fdae, asm:   MULSS_XMM_M : mmulf   %xmm0_low, %xmm0_low, %ufp1, opclass is now: 7.
2326781500: system.cpu.fetch: after, Accl inst[1] checked: Instruction PC 0x40fdae, asm:   MULSS_XMM_M : mmulf   %xmm0_low, %xmm0_low, %ufp1, opclass is now: 38.
2327428000: system.cpu.fetch: before, Accl inst[0] encoutner: Instruction PC 0x4111a1, asm:   MULSS_XMM_M : mmulf   %xmm0_low, %xmm0_low, %ufp1, opclass is now: 7.
2327428000: system.cpu.fetch: after, Accl inst[1] checked: Instruction PC 0x4111a1, asm:   MULSS_XMM_M : mmulf   %xmm0_low, %xmm0_low, %ufp1, opclass is now: 38.
2328298500: system.cpu.fetch: before, Accl inst[0] encoutner: Instruction PC 0x400bff, asm:   MULSS_XMM_M : mmulf   %xmm0_low, %xmm0_low, %ufp1, opclass is now: 7.
2328298500: system.cpu.fetch: after, Accl inst[1] checked: Instruction PC 0x400bff, asm:   MULSS_XMM_M : mmulf   %xmm0_low, %xmm0_low, %ufp1, opclass is now: 38.
2330308500: system.cpu.fetch: before, Accl inst[0] encoutner: Instruction PC 0x404a50, asm:   MULSS_XMM_M : mmulf   %xmm0_low, %xmm0_low, %ufp1, opclass is now: 7.
2330308500: system.cpu.fetch: after, Accl inst[1] checked: Instruction PC 0x404a50, asm:   MULSS_XMM_M : mmulf   %xmm0_low, %xmm0_low, %ufp1, opclass is now: 38.
2331170500: system.cpu.fetch: before, Accl inst[0] encoutner: Instruction PC 0x4064d6, asm:   MULSS_XMM_M : mmulf   %xmm0_low, %xmm0_low, %ufp1, opclass is now: 7.
2331170500: system.cpu.fetch: after, Accl inst[1] checked: Instruction PC 0x4064d6, asm:   MULSS_XMM_M : mmulf   %xmm0_low, %xmm0_low, %ufp1, opclass is now: 38.
2332755500: system.cpu.fetch: before, Accl inst[0] encoutner: Instruction PC 0x409601, asm:   MULSS_XMM_M : mmulf   %xmm0_low, %xmm0_low, %ufp1, opclass is now: 7.
2332755500: system.cpu.fetch: after, Accl inst[1] checked: Instruction PC 0x409601, asm:   MULSS_XMM_M : mmulf   %xmm0_low, %xmm0_low, %ufp1, opclass is now: 38.
2333998000: system.cpu.fetch: before, Accl inst[0] encoutner: Instruction PC 0x40bc37, asm:   MULSS_XMM_M : mmulf   %xmm0_low, %xmm0_low, %ufp1, opclass is now: 7.
2333998000: system.cpu.fetch: after, Accl inst[1] checked: Instruction PC 0x40bc37, asm:   MULSS_XMM_M : mmulf   %xmm0_low, %xmm0_low, %ufp1, opclass is now: 38.
2334340000: system.cpu.fetch: before, Accl inst[0] encoutner: Instruction PC 0x40c6ab, asm:   MULSS_XMM_M : mmulf   %xmm0_low, %xmm0_low, %ufp1, opclass is now: 7.
2334340000: system.cpu.fetch: after, Accl inst[1] checked: Instruction PC 0x40c6ab, asm:   MULSS_XMM_M : mmulf   %xmm0_low, %xmm0_low, %ufp1, opclass is now: 38.
2336119000: system.cpu.fetch: before, Accl inst[0] encoutner: Instruction PC 0x40fdae, asm:   MULSS_XMM_M : mmulf   %xmm0_low, %xmm0_low, %ufp1, opclass is now: 7.
2336119000: system.cpu.fetch: after, Accl inst[1] checked: Instruction PC 0x40fdae, asm:   MULSS_XMM_M : mmulf   %xmm0_low, %xmm0_low, %ufp1, opclass is now: 38.
2336765500: system.cpu.fetch: before, Accl inst[0] encoutner: Instruction PC 0x4111a1, asm:   MULSS_XMM_M : mmulf   %xmm0_low, %xmm0_low, %ufp1, opclass is now: 7.
2336765500: system.cpu.fetch: after, Accl inst[1] checked: Instruction PC 0x4111a1, asm:   MULSS_XMM_M : mmulf   %xmm0_low, %xmm0_low, %ufp1, opclass is now: 38.
2337636000: system.cpu.fetch: before, Accl inst[0] encoutner: Instruction PC 0x400bff, asm:   MULSS_XMM_M : mmulf   %xmm0_low, %xmm0_low, %ufp1, opclass is now: 7.
2337636000: system.cpu.fetch: after, Accl inst[1] checked: Instruction PC 0x400bff, asm:   MULSS_XMM_M : mmulf   %xmm0_low, %xmm0_low, %ufp1, opclass is now: 38.
2339646000: system.cpu.fetch: before, Accl inst[0] encoutner: Instruction PC 0x404a50, asm:   MULSS_XMM_M : mmulf   %xmm0_low, %xmm0_low, %ufp1, opclass is now: 7.
2339646000: system.cpu.fetch: after, Accl inst[1] checked: Instruction PC 0x404a50, asm:   MULSS_XMM_M : mmulf   %xmm0_low, %xmm0_low, %ufp1, opclass is now: 38.
2340508000: system.cpu.fetch: before, Accl inst[0] encoutner: Instruction PC 0x4064d6, asm:   MULSS_XMM_M : mmulf   %xmm0_low, %xmm0_low, %ufp1, opclass is now: 7.
2340508000: system.cpu.fetch: after, Accl inst[1] checked: Instruction PC 0x4064d6, asm:   MULSS_XMM_M : mmulf   %xmm0_low, %xmm0_low, %ufp1, opclass is now: 38.
2342093000: system.cpu.fetch: before, Accl inst[0] encoutner: Instruction PC 0x409601, asm:   MULSS_XMM_M : mmulf   %xmm0_low, %xmm0_low, %ufp1, opclass is now: 7.
2342093000: system.cpu.fetch: after, Accl inst[1] checked: Instruction PC 0x409601, asm:   MULSS_XMM_M : mmulf   %xmm0_low, %xmm0_low, %ufp1, opclass is now: 38.
2343335500: system.cpu.fetch: before, Accl inst[0] encoutner: Instruction PC 0x40bc37, asm:   MULSS_XMM_M : mmulf   %xmm0_low, %xmm0_low, %ufp1, opclass is now: 7.
2343335500: system.cpu.fetch: after, Accl inst[1] checked: Instruction PC 0x40bc37, asm:   MULSS_XMM_M : mmulf   %xmm0_low, %xmm0_low, %ufp1, opclass is now: 38.
2343677500: system.cpu.fetch: before, Accl inst[0] encoutner: Instruction PC 0x40c6ab, asm:   MULSS_XMM_M : mmulf   %xmm0_low, %xmm0_low, %ufp1, opclass is now: 7.
2343677500: system.cpu.fetch: after, Accl inst[1] checked: Instruction PC 0x40c6ab, asm:   MULSS_XMM_M : mmulf   %xmm0_low, %xmm0_low, %ufp1, opclass is now: 38.
2345456500: system.cpu.fetch: before, Accl inst[0] encoutner: Instruction PC 0x40fdae, asm:   MULSS_XMM_M : mmulf   %xmm0_low, %xmm0_low, %ufp1, opclass is now: 7.
2345456500: system.cpu.fetch: after, Accl inst[1] checked: Instruction PC 0x40fdae, asm:   MULSS_XMM_M : mmulf   %xmm0_low, %xmm0_low, %ufp1, opclass is now: 38.
2346103000: system.cpu.fetch: before, Accl inst[0] encoutner: Instruction PC 0x4111a1, asm:   MULSS_XMM_M : mmulf   %xmm0_low, %xmm0_low, %ufp1, opclass is now: 7.
2346103000: system.cpu.fetch: after, Accl inst[1] checked: Instruction PC 0x4111a1, asm:   MULSS_XMM_M : mmulf   %xmm0_low, %xmm0_low, %ufp1, opclass is now: 38.
2346973500: system.cpu.fetch: before, Accl inst[0] encoutner: Instruction PC 0x400bff, asm:   MULSS_XMM_M : mmulf   %xmm0_low, %xmm0_low, %ufp1, opclass is now: 7.
2346973500: system.cpu.fetch: after, Accl inst[1] checked: Instruction PC 0x400bff, asm:   MULSS_XMM_M : mmulf   %xmm0_low, %xmm0_low, %ufp1, opclass is now: 38.
2348983500: system.cpu.fetch: before, Accl inst[0] encoutner: Instruction PC 0x404a50, asm:   MULSS_XMM_M : mmulf   %xmm0_low, %xmm0_low, %ufp1, opclass is now: 7.
2348983500: system.cpu.fetch: after, Accl inst[1] checked: Instruction PC 0x404a50, asm:   MULSS_XMM_M : mmulf   %xmm0_low, %xmm0_low, %ufp1, opclass is now: 38.
2349845500: system.cpu.fetch: before, Accl inst[0] encoutner: Instruction PC 0x4064d6, asm:   MULSS_XMM_M : mmulf   %xmm0_low, %xmm0_low, %ufp1, opclass is now: 7.
2349845500: system.cpu.fetch: after, Accl inst[1] checked: Instruction PC 0x4064d6, asm:   MULSS_XMM_M : mmulf   %xmm0_low, %xmm0_low, %ufp1, opclass is now: 38.
2351430500: system.cpu.fetch: before, Accl inst[0] encoutner: Instruction PC 0x409601, asm:   MULSS_XMM_M : mmulf   %xmm0_low, %xmm0_low, %ufp1, opclass is now: 7.
2351430500: system.cpu.fetch: after, Accl inst[1] checked: Instruction PC 0x409601, asm:   MULSS_XMM_M : mmulf   %xmm0_low, %xmm0_low, %ufp1, opclass is now: 38.
2352673000: system.cpu.fetch: before, Accl inst[0] encoutner: Instruction PC 0x40bc37, asm:   MULSS_XMM_M : mmulf   %xmm0_low, %xmm0_low, %ufp1, opclass is now: 7.
2352673000: system.cpu.fetch: after, Accl inst[1] checked: Instruction PC 0x40bc37, asm:   MULSS_XMM_M : mmulf   %xmm0_low, %xmm0_low, %ufp1, opclass is now: 38.
2353015000: system.cpu.fetch: before, Accl inst[0] encoutner: Instruction PC 0x40c6ab, asm:   MULSS_XMM_M : mmulf   %xmm0_low, %xmm0_low, %ufp1, opclass is now: 7.
2353015000: system.cpu.fetch: after, Accl inst[1] checked: Instruction PC 0x40c6ab, asm:   MULSS_XMM_M : mmulf   %xmm0_low, %xmm0_low, %ufp1, opclass is now: 38.
2354794000: system.cpu.fetch: before, Accl inst[0] encoutner: Instruction PC 0x40fdae, asm:   MULSS_XMM_M : mmulf   %xmm0_low, %xmm0_low, %ufp1, opclass is now: 7.
2354794000: system.cpu.fetch: after, Accl inst[1] checked: Instruction PC 0x40fdae, asm:   MULSS_XMM_M : mmulf   %xmm0_low, %xmm0_low, %ufp1, opclass is now: 38.
2355440500: system.cpu.fetch: before, Accl inst[0] encoutner: Instruction PC 0x4111a1, asm:   MULSS_XMM_M : mmulf   %xmm0_low, %xmm0_low, %ufp1, opclass is now: 7.
2355440500: system.cpu.fetch: after, Accl inst[1] checked: Instruction PC 0x4111a1, asm:   MULSS_XMM_M : mmulf   %xmm0_low, %xmm0_low, %ufp1, opclass is now: 38.
2356311000: system.cpu.fetch: before, Accl inst[0] encoutner: Instruction PC 0x400bff, asm:   MULSS_XMM_M : mmulf   %xmm0_low, %xmm0_low, %ufp1, opclass is now: 7.
2356311000: system.cpu.fetch: after, Accl inst[1] checked: Instruction PC 0x400bff, asm:   MULSS_XMM_M : mmulf   %xmm0_low, %xmm0_low, %ufp1, opclass is now: 38.
result of accum[0] is 38070.785156
result of accum[1] is 37657.695312
result of accum[2] is 39697.886719
result of accum[3] is 39002.820312
Exiting @ tick 2371376500 because (main run) exiting with last active thread context
